         410
 CSIRO Nanostructure Databank - Neutral Graphene Oxide Data Set
C         27.91468        27.34441        -0.51754
C         27.92447        28.75562        -0.68198
C         26.75659        29.48427        -1.03714
C         28.02783        31.57472        -1.11168
C         26.80845        30.84494        -1.24245
C         28.06566        33.02819        -1.29869
C         26.89466        33.75597        -1.61957
C         28.05904        35.88392        -1.38904
C         26.89931        35.13672        -1.70528
C         28.07852        37.33797        -1.43845
C         26.91172        38.09571        -1.63347
C         28.10400        40.24280        -1.64061
C         26.91321        39.49548        -1.66386
C         28.13851        41.67033        -1.65227
C         26.94777        42.43440        -1.84296
C         28.15287        44.52896        -1.49700
C         26.95356        43.80626        -1.78875
C         28.13286        45.94588        -1.36579
C         30.31921        27.33665        -0.07146
C         29.07993        26.65946        -0.24195
C         30.34141        28.74576        -0.16802
C         29.14877        29.46286        -0.51203
C         30.49807        31.54237        -0.72015
C         29.18285        30.86928        -0.72674
C         30.54594        33.02700        -0.95797
C         29.26155        33.76175        -1.08150
C         30.39178        35.93514        -0.51182
C         29.23857        35.17513        -1.05607
C         30.44693        37.39128        -0.75574
C         29.32744        38.03430        -1.25615
C         30.66207        40.24817        -1.41898
C         29.36830        39.47929        -1.60395
C         30.59191        41.70797        -1.29211
C         29.37904        42.38456        -1.43372
C         30.55922        44.55005        -0.97234
C         29.36709        43.82716        -1.31850
C         30.50446        45.96501        -0.79892
C         29.27165        46.63932        -1.02437
C         32.82215        24.50668         0.16927
C         31.62979        25.19123        -0.01266
C         32.74427        27.27664         0.51776
C         31.56259        26.59142         0.15045
C         32.65346        28.72937         0.76507
C         31.54441        29.48810         0.14935
C         32.84324        31.60640         0.25600
C         31.64298        30.85034        -0.08108
C         32.91162        33.03652         0.04614
C         31.84129        33.79457        -0.71972
C         32.92207        35.93153         0.02150
C         31.65372        35.19139        -0.15382
C         32.91396        37.39797         0.07151
C         31.66528        38.14879        -0.38104
C         33.00809        40.22418        -0.62697
C         31.83199        39.55663        -0.82616
C         33.14308        41.68211        -0.89134
C         31.85392        42.44759        -1.15063
C         32.96342        44.54573        -0.35778
C         31.80364        43.87583        -0.81994
C         32.87270        45.93720        -0.08846
C         31.69175        46.65792        -0.37219
C         32.87865        48.77466        -0.00400
C         31.70739        48.08603        -0.26080
C         35.33102        23.01212         0.53757
C         35.28686        24.45881         0.57292
C         34.01955        25.17722         0.50019
C         35.21440        27.33635         0.88358
C         33.97919        26.59100         0.67617
C         35.18697        28.72088         1.03867
C         33.92504        29.49042         1.09939
C         35.13612        31.69859         1.17962
C         33.94009        30.94318         0.80824
C         35.21854        33.12787         0.88619
C         34.05478        33.77953         0.37698
C         35.33451        35.94801         0.49589
C         34.09778        35.23326         0.22624
C         35.38723        37.39374         0.33893
C         34.22511        38.07630         0.01929
C         35.55067        40.26426        -0.14446
C         34.26267        39.48763        -0.36449
C         35.48299        41.73063         0.02104
C         34.29410        42.42660        -0.30561
C         35.38321        44.55302         0.31049
C         34.20826        43.82561        -0.12479
C         35.31659        45.93051         0.53382
C         33.98463        46.62994         0.66170
C         35.29277        48.82114         0.50366
C         34.07009        48.10741         0.34911
C         35.46575        50.07550        -0.07424
C         37.79207        22.94802         0.38589
C         36.48769        22.29398         0.52616
C         37.76446        24.46246         0.55779
C         36.47572        25.16751         0.73751
C         37.69787        27.27881         1.04462
C         36.48400        26.60625         0.89482
C         37.73641        28.73345         0.93999
C         36.43206        29.48918         0.93835
C         37.69855        31.69352         1.13891
C         36.46168        30.93001         1.33103
C         37.66650        33.06897         1.13757
C         36.43527        33.81449         1.02763
C         37.68842        35.98488         1.28405
C         36.47297        35.24852         0.86931
C         37.78346        37.43832         1.06927
C         36.63538        38.12209         0.57615
C         37.86441        40.24972         0.75605
C         36.68801        39.52650         0.43167
C         37.86376        41.69443         0.71600
C         36.65773        42.42111         0.43972
C         37.82711        44.56202         0.84654
C         36.63067        43.84832         0.53391
C         37.80951        45.98083         1.00899
C         36.50016        46.65464         1.02108
C         37.74939        48.96864         1.42868
C         36.46137        48.15966         1.15069
C         37.77295        50.30283         0.70984
C         36.69540        50.77588         0.00656
C         40.38659        20.15131         0.46660
C         39.14692        20.83784         0.50955
C         40.28985        22.97685         0.78041
C         39.08206        22.22891         0.62332
C         40.30141        24.38456         0.86464
C         39.01092        25.09380         1.07329
C         40.27230        27.33298         1.24357
C         38.97132        26.57786         1.32543
C         40.23114        28.76133         0.95168
C         38.99621        29.47295         1.25833
C         40.23379        31.64462         0.76741
C         38.99359        30.97134         1.17243
C         40.22105        33.10522         0.67861
C         38.93013        33.81515         0.91211
C         40.30458        35.89974         1.48764
C         38.97764        35.20604         1.42535
C         40.28700        37.40731         1.55595
C         39.00229        38.12894         1.28675
C         40.26830        40.27561         1.43855
C         39.03349        39.53131         1.12155
C         40.30162        41.72629         1.18264
C         39.07970        42.40798         0.94132
C         40.28472        44.53486         1.12822
C         39.07009        43.84227         0.94975
C         40.25039        45.98563         1.35339
C         38.99331        46.73376         1.17537
C         40.26900        48.85008         1.05821
C         39.03753        48.16162         1.19218
C         40.30701        50.33624         1.01024
C         38.98906        51.11741         0.86787
C         40.24884        53.10390         0.14630
C         39.05800        52.48654         0.33146
C         42.85540        20.16346         0.51040
C         41.58692        20.81618         0.64140
C         42.83797        23.01260         0.78626
C         41.57369        22.24403         1.10768
C         42.77461        24.41569         0.77126
C         41.52655        25.09705         0.86958
C         42.74515        27.28698         0.46660
C         41.56362        26.56843         1.00966
C         42.61386        28.68544         0.02328
C         41.35901        29.47431         0.37367
C         42.62010        31.68498         0.23680
C         41.41075        30.95994         0.46551
C         42.69037        33.10025         0.44516
C         41.50280        33.82753         0.76122
C         42.73510        35.94543         0.83389
C         41.53042        35.20832         1.01129
C         42.74221        37.38428         0.98001
C         41.57241        38.08686         1.27846
C         42.91439        40.26587         1.55659
C         41.58726        39.52547         1.55823
C         42.79567        41.71723         1.13970
C         41.54283        42.41727         1.16881
C         42.77027        44.56551         0.99225
C         41.52952        43.84930         1.10930
C         42.79119        45.98248         0.94001
C         41.57697        46.74686         1.25135
C         42.73385        48.84791         0.63046
C         41.51752        48.17859         0.94035
C         42.73777        50.27662         0.41422
C         41.53026        51.01071         0.54104
C         42.70928        53.04787        -0.10012
C         41.50351        52.39042         0.24265
C         44.03252        20.85911         0.54861
C         45.30083        23.00515         0.49547
C         44.07886        22.30694         0.64471
C         45.33376        24.47131         0.65814
C         44.01809        25.21411         0.79310
C         45.18045        27.33586         0.02756
C         43.96469        26.64519         0.40248
C         45.15666        28.75706        -0.17559
C         43.86177        29.45377        -0.26939
C         45.13319        31.68524        -0.04771
C         43.84438        30.98427        -0.18359
C         45.14465        33.09441         0.06951
C         43.91686        33.82057         0.30367
C         45.12755        35.98315         0.20776
C         43.92928        35.24827         0.45051
C         45.16129        37.39189         0.33267
C         43.98171        38.11807         0.73824
C         45.21412        40.24506         0.55560
C         44.02671        39.51346         0.85628
C         45.21965        41.67071         0.64474
C         43.99012        42.40401         0.88568
C         45.20900        44.54388         0.64922
C         43.98983        43.83952         0.81599
C         45.21711        45.96901         0.58004
C         43.98360        46.69189         0.67570
C         45.19217        48.81794         0.31333
C         43.96320        48.12319         0.54679
C         45.19404        50.22668         0.09565
C         43.94651        50.95972         0.10897
C         43.90255        52.35542        -0.13887
C         47.71203        23.09618         0.04503
C         46.54822        22.37660         0.21239
C         47.73332        24.52891        -0.00803
C         46.50832        25.22812         0.17732
C         47.59620        27.30955        -0.57193
C         46.40202        26.61357        -0.07463
C         47.57881        28.84200        -0.65137
C         46.32372        29.52371        -0.32325
C         47.59132        31.65517        -0.19921
C         46.33898        30.95594        -0.21094
C         47.58733        33.08867        -0.17973
C         46.37763        33.79078        -0.08969
C         47.60693        35.98636        -0.29123
C         46.29869        35.26139        -0.41824
C         47.59672        37.39653        -0.19621
C         46.38027        38.11619         0.08630
C         47.61660        40.26512        -0.07728
C         46.40647        39.53812         0.17369
C         47.63507        41.68859         0.09645
C         46.42976        42.38508         0.43552
C         47.66830        44.52000         0.51282
C         46.44323        43.81731         0.52755
C         47.68926        45.96844         0.50415
C         46.44477        46.67867         0.45666
C         47.66434        48.80461         0.17355
C         46.43418        48.10102         0.31857
C         47.62716        50.19770        -0.05665
C         46.42751        50.88402        -0.10912
C         50.25273        24.62121        -0.14958
C         48.94799        25.25525        -0.24475
C         50.07958        27.40943        -0.71192
C         48.90230        26.64599        -0.48613
C         50.08523        28.82010        -0.61091
C         48.85222        29.55777        -0.49227
C         50.11030        31.65989         0.03438
C         48.82550        30.93270        -0.26400
C         50.07590        33.12536        -0.33246
C         48.84912        33.81446        -0.32928
C         50.05342        35.92952        -0.62040
C         48.82501        35.24244        -0.43417
C         49.99902        37.39276        -0.86774
C         48.79976        38.14325        -0.43080
C         50.03046        40.28530        -0.82656
C         48.80494        39.53879        -0.43322
C         50.07081        41.79252        -0.52137
C         48.85652        42.43249         0.03358
C         50.17926        44.47823         0.59957
C         48.88423        43.78969         0.37291
C         50.19133        45.98674         0.86941
C         48.90393        46.67746         0.47730
C         50.15718        48.75914         0.19548
C         48.91889        48.08852         0.29185
C         51.37402        25.27915        -0.51299
C         52.58269        27.40147        -1.11564
C         51.29009        26.63558        -1.18014
C         52.61672        28.76596        -0.48821
C         51.32921        29.54842        -0.58017
C         52.58608        31.67199        -0.49841
C         51.35414        30.93017        -0.42937
C         52.58053        33.09739        -0.46524
C         51.30955        33.82142        -0.44390
C         52.54223        35.99285        -0.59740
C         51.27155        35.23038        -0.62091
C         52.56406        37.38560        -1.14124
C         51.27545        38.14632        -1.12163
C         52.54478        40.29427        -0.89747
C         51.32862        39.60161        -0.90863
C         52.56194        41.73089        -0.66442
C         51.38410        42.42213        -0.38338
C         52.64926        44.59210        -0.08126
C         51.44333        43.78628         0.18221
C         52.67449        45.96716         0.14231
C         51.43781        46.68991         0.36159
C         51.37632        48.06322         0.17146
C         54.97672        27.49276        -1.54228
C         53.74637        26.80333        -1.54854
C         55.01832        28.87553        -1.24133
C         53.83208        29.56250        -0.86937
C         55.05069        31.69040        -0.88760
C         53.82375        30.96903        -0.73843
C         55.04512        33.11271        -0.73969
C         53.82027        33.79456        -0.55185
C         55.11369        36.00849        -0.75802
C         53.85134        35.27139        -0.48138
C         55.11680        37.40147        -0.85144
C         53.85554        38.13545        -1.13200
C         55.03097        40.29645        -0.89220
C         53.81805        39.61091        -0.99263
C         55.04404        41.74316        -0.74941
C         53.83168        42.42359        -0.64908
C         55.17659        44.65370        -0.52159
C         53.81986        43.89566        -0.60268
C         55.13506        46.00753         0.03406
C         53.95123        46.65267         0.20915
C         56.23221        29.61502        -1.38520
C         56.24648        30.97232        -1.19113
C         56.27459        33.86221        -0.80314
C         56.31121        35.22911        -0.81055
C         56.31294        38.18601        -0.86937
C         56.26863        39.55267        -0.91701
C         56.29214        42.46219        -0.57367
C         56.36402        43.80672        -0.39608
O         32.97463        29.10472         2.14814
O         38.87228        25.62026         2.43332
O         37.15545        29.25162        -0.32057
O         35.68319        31.28433         2.49078
O         31.99076        37.99816         1.05740
O         39.39173        33.67284        -0.47284
O         30.67462        35.44853         0.88118
O         36.15068        47.35365         2.33628
O         50.40016        37.76072        -2.24613
O         32.81161        42.10886        -2.24367
O         38.16587        35.46335         2.58728
O         41.20152        27.04242         2.36643
O         49.81234        41.27794        -1.87734
O         40.81273        39.88022         2.76023
O         53.18366        35.85572         0.72093
O         37.90212        23.86386        -0.76623
O         39.07109        30.25437         2.50465
O         39.66912        50.97463         2.15367
O         54.44129        44.51699        -1.77252
O         51.00110        43.78691         1.61846
O         40.42721        36.59003         2.77116
O         35.20294        39.76512        -1.48344
O         47.44400        28.01020        -1.85374
O         40.99091        46.39713         2.54997
O         30.77700        32.09133        -2.07844
O         43.73832        30.26771        -1.47038
O         44.85009        24.94684         1.97210
O         41.59840        28.90475        -1.00262
O         30.26321        39.74098        -2.74779
O         53.26767        37.58650        -2.40088
O         37.73600        49.28711         2.84027
H         37.42385        48.47993         3.30944
O         43.35840        40.31957         2.95126
H         42.54212        40.39365         3.49933
O         51.06232        26.36769        -2.60827
H         50.16831        25.97299        -2.69492
O         46.00266        35.27649        -1.87821
H         46.05789        36.20945        -2.17794
O         50.24887        46.14326         2.32647
H         50.77981        45.38230         2.66162
O         50.21464        31.64499         1.50840
H         51.09468        32.00959         1.74418
O         32.40953        34.06061        -2.03737
H         32.24399        33.25231        -2.57805
O         41.56455        22.15348         2.59303
H         41.58423        23.07256         2.93927
O         33.59998        46.51848         2.08321
H         34.36716        46.87476         2.59751
O         52.76719        28.49992         0.97627
H         53.64538        28.07889         1.09952
H         26.96801        26.79764        -0.63395
H         25.80688        28.94458        -1.16202
H         25.88494        31.36593        -1.52649
H         25.95570        33.22713        -1.82773
H         25.97416        35.65106        -1.99719
H         25.94226        37.58533        -1.71052
H         25.94385        40.00794        -1.72641
H         26.00192        41.91738        -2.05286
H         26.02225        44.36875        -1.94643
H         27.18540        46.48170        -1.52032
H         29.03791        25.56721        -0.13587
H         29.21042        47.72923        -0.90940
H         32.82603        23.41994         0.01379
H         30.73603        24.62275        -0.30167
H         32.86206        49.87286        -0.04947
H         30.79862        48.66305        -0.47327
H         34.38460        22.45955         0.61771
H         34.64335        50.54305        -0.63094
H         36.44476        21.20339         0.65909
H         36.75318        51.75384        -0.49132
H         40.38937        19.07814         0.22491
H         38.22633        20.26023         0.34777
H         40.28043        54.15113        -0.18869
H         38.12462        53.03312         0.13663
H         42.87038        19.07407         0.35547
H         42.68693        54.12272        -0.32964
H         44.97455        20.30328         0.45164
H         44.82095        52.90290        -0.38627
H         48.64503        22.54534        -0.13561
H         46.60282        21.28144         0.14690
H         48.55724        50.76343        -0.19596
H         46.45503        51.96628        -0.28889
H         50.32419        23.60612         0.26649
H         50.18664        49.84606         0.04719
H         52.35616        24.79145        -0.42488
H         52.28856        48.62650        -0.07199
H         55.89446        26.98316        -1.86678
H         53.71462        25.77491        -1.93662
H         56.08282        46.50058         0.29647
H         53.96136        47.68826         0.57686
H         57.15325        29.08138        -1.65961
H         57.19587        31.50971        -1.30944
H         57.22684        33.32130        -0.86984
H         57.28287        35.73246        -0.90396
H         57.29143        37.69014        -0.81179
H         57.22160        40.09596        -0.92390
H         57.22362        41.88730        -0.49187
H         57.32010        44.27847        -0.12456
