         244
 CSIRO Nanostructure Databank - Neutral Graphene Oxide Data Set
C          1.40732         2.07762         0.80415
C          1.35441         3.48376         0.59302
C          2.57107         1.37853         0.62423
C          2.47457         4.20191         0.19542
C          1.22696         6.41911         0.24687
C          1.18056         7.80247         0.19313
C          2.44345         5.67042         0.04673
C          2.32602         8.58605        -0.05653
C          1.12662        10.79734        -0.00579
C          1.16317        12.16913        -0.01368
C          2.33118        10.02022         0.01612
C          2.39089        12.90863         0.06245
C          1.19525        15.10080         0.12204
C          1.15668        16.42499         0.35787
C          2.42722        14.32834         0.15422
C          2.35329        17.26503         0.73693
C          2.42225        18.43169        -0.21846
C          3.76745         2.05104         0.18345
C          3.71153         3.49256        -0.02470
C          4.93414         1.35051        -0.04743
C          4.89910         4.17369        -0.33942
C          3.59264         6.36466        -0.27096
C          3.60823         7.86785        -0.42797
C          4.88738         5.65898        -0.59372
C          4.74234         8.50375         0.45027
C          3.55686        10.74185         0.10312
C          3.61238        12.15696         0.13381
C          4.81861         9.96824         0.06294
C          4.85836        12.87597         0.27874
C          3.66317        15.02153         0.31559
C          3.66903        16.43224         0.87250
C          4.88461        14.26652         0.33703
C          4.96467        17.29490         0.68024
C          3.57164        18.98978        -0.64553
C          4.86829        18.46237        -0.28726
C          6.13426         2.00478        -0.67362
C          6.14255         3.49942        -0.45607
C          7.43979         1.34415        -0.33522
C          7.37310         4.20381        -0.43774
C          6.10562         6.30092         0.04659
C          6.08068         7.74673         0.42002
C          7.39714         5.61842        -0.22462
C          7.36366         8.49310         0.31200
C          6.10003        10.67581         0.23738
C          6.10699        12.11933         0.68798
C          7.33987         9.86653         0.35087
C          7.40631        12.80814         0.34414
C          6.17802        14.98226         0.74237
C          6.18096        16.44341         0.33771
C          7.42997        14.26409         0.28356
C          7.28793        17.06239        -0.15480
C          6.01458        19.09213        -0.69735
C          7.30607        18.49474        -0.45611
C          8.61897         2.03999        -0.30866
C          8.62764         3.49188        -0.43370
C          9.88740         1.38319        -0.05880
C          9.83842         4.18768        -0.43024
C          8.59829         6.32003        -0.10853
C          8.61103         7.75372         0.09787
C          9.84530         5.63172        -0.36019
C          9.83041         8.42385         0.01353
C          8.53514        10.63379        -0.00110
C          8.55504        12.09701         0.19432
C          9.81525         9.88480        -0.14493
C          9.87214        12.83378         0.21032
C          8.53983        14.89654        -0.18427
C          8.55402        16.34998        -0.53638
C          9.79675        14.13987        -0.56987
C          9.77286        17.07390         0.05620
C          8.51088        19.16712        -0.58313
C          9.78431        18.52876        -0.37312
C         11.07264         2.06423        -0.05213
C         11.10945         3.48734        -0.33262
C         12.34999         1.35021         0.32266
C         12.31372         4.17079        -0.48590
C         11.04880         6.32566        -0.48088
C         11.08701         7.73951        -0.24971
C         12.24377         5.58899        -1.04583
C         12.28975         8.44306        -0.28307
C         11.06170        10.65625        -0.09284
C         11.07519        12.00775        -0.15241
C         12.30136         9.87493         0.04800
C         12.32225        12.73037        -0.60326
C         11.08469        14.92510        -0.36103
C         11.06492        16.34862        -0.26299
C         12.29688        14.22065        -0.37160
C         12.24733        17.07221        -0.39065
C         10.98518        19.19999        -0.46235
C         12.25993        18.51708        -0.37492
C         13.61446         2.04608        -0.13765
C         13.58809         3.48236        -0.40720
C         14.77981         1.33814        -0.14927
C         14.78530         4.17613        -0.51063
C         13.57660         6.37063        -0.98839
C         13.56130         7.89763        -0.88987
C         14.84879         5.64130        -0.71267
C         14.83778         8.50404        -0.28079
C         13.57552        10.62239         0.13551
C         13.59398        12.07976        -0.12217
C         14.82567         9.85351         0.01526
C         14.76137        12.78556        -0.05160
C         13.54559        14.90035        -0.40483
C         13.50339        16.34864        -0.62841
C         14.78278        14.22348        -0.28694
C         14.81791        17.11576        -0.54237
C         13.47192        19.20793        -0.28581
C         14.74440        18.55606        -0.22063
C         16.06239         1.94721        -0.51951
C         16.06976         3.47802        -0.63953
C         17.34344         1.29505        -0.23245
C         17.31038         4.19947        -0.30089
C         16.09255         6.35438        -0.29529
C         16.07194         7.77076        -0.15754
C         17.26652         5.60947        -0.08046
C         17.30051         8.49581         0.13421
C         16.02972        10.57760         0.40288
C         16.00983        12.10244         0.37071
C         17.30040         9.86834         0.32321
C         17.30167        12.80408         0.18931
C         16.02484        14.93233        -0.21212
C         16.03992        16.35221        -0.23864
C         17.27751        14.22330        -0.02411
C         17.22780        17.07632        -0.00299
C         15.92961        19.20842         0.08835
C         17.18494        18.51257         0.13458
C         18.51554         2.01842        -0.22089
C         18.50667         3.46691        -0.17082
C         19.80310         1.32732        -0.24112
C         19.75194         4.17450         0.03035
C         18.49521         6.28359         0.48746
C         18.56193         7.77427         0.25344
C         19.76683         5.53999         0.15133
C         19.75464         8.46577         0.36708
C         18.52445        10.64198         0.74593
C         18.50086        12.10245         0.31072
C         19.79320         9.91720         0.38198
C         19.74381        12.80362         0.22083
C         18.49548        14.93613         0.01132
C         18.48241        16.38281         0.04469
C         19.74135        14.22950         0.11905
C         19.67413        17.10740         0.17322
C         18.38070        19.19837         0.37819
C         19.62838        18.51975         0.40718
C         20.97761         1.97131        -0.12302
C         21.04657         3.41884         0.27064
C         22.21649         4.17500        -0.31892
C         21.06455         6.24375         0.30431
C         21.05377         7.74358         0.45522
C         22.24613         5.51341        -0.23271
C         22.26720         8.53302         0.17257
C         20.97676        10.61746         0.23525
C         20.98319        12.08376         0.25022
C         22.21498         9.87820         0.04843
C         22.17334        12.81462         0.23878
C         20.97893        14.93796         0.12718
C         21.00869        16.44217        -0.05760
C         22.16716        14.21759         0.18477
C         22.12037        17.15040         0.67149
C         20.82062        19.20462         0.75194
C         22.02390        18.48800         0.95740
O         16.10096         2.62120        -1.82981
O         21.21158         6.85040         1.64869
O          9.02924        10.26682        -1.35043
O          6.02863         6.68863         1.45732
O          6.17680        14.89504         2.20197
O         15.88686        11.40085         1.65373
O         12.88414        10.19952         1.40129
O          5.58350        10.38147        -1.11891
O         14.22636        16.77994        -1.83834
O         14.43611         5.98315        -2.11989
O         11.93694         5.42203        -2.46107
H         12.79642         5.24865        -2.91116
O          3.87323         8.20124        -1.81054
H          4.54655         7.56588        -2.15921
O         18.39005         6.14521         1.95533
H         19.23862         6.49026         2.32320
O          3.70472        15.90984         2.21482
H          5.28426        15.26782         2.47933
O          4.27981         8.51194         1.81211
H          4.65231         7.71273         2.25350
O         21.31176        16.63869        -1.49609
H         21.28213        17.60473        -1.66571
O          2.07761        17.81235         2.04833
H          2.49713        17.15598         2.66662
O          5.95592         1.80140        -2.13778
H          5.07480         2.16410        -2.37102
O         10.11754        13.24144         1.59154
H         10.14385        12.44003         2.15503
O         18.48410        10.67418         2.21444
H         17.58135        10.99857         2.45743
O          9.73605        13.83990        -1.99148
H          9.53315        14.69698        -2.44083
O          8.70406        16.42956        -1.99481
H          7.81448        16.33505        -2.39581
O         21.25078         3.41670         1.72051
H         21.27252         4.35238         2.01768
O         12.30612        12.57497        -2.06506
H         11.42511        12.91201        -2.36799
O          9.60333        17.04229         1.49400
H         10.31340        17.57936         1.90167
O          5.12649         5.83124        -2.04036
H          4.45990         5.29662        -2.52167
O         13.54259         8.40822        -2.25601
H         14.03806         7.75680        -2.80512
O         12.33000        -0.01110        -0.11462
H         12.30604        -0.01715        -1.09341
O          5.20749        17.90757         1.97149
H          4.76599        17.30230         2.62334
O          6.07338        12.09157         2.14632
H          6.12391        13.04288         2.44050
H          0.49476         1.55773         1.12739
H          0.39911         3.99318         0.77576
H          2.60737         0.29341         0.79656
H          0.29708         5.88097         0.47410
H          0.22170         8.29794         0.40489
H          0.15431        10.28909        -0.07085
H          0.20789        12.70779        -0.06511
H          0.25342        14.58126        -0.10417
H          0.18971        16.95100         0.32366
H          1.46083        18.87239        -0.52583
H          4.94022         0.25613         0.07176
H          3.54498        19.86761        -1.31090
H          7.44601         0.25065        -0.20828
H          5.95649        20.03817        -1.25850
H          9.88952         0.29867         0.12837
H          8.50390        20.23986        -0.83253
H         12.38638         1.31368         1.45047
H         10.99133        20.28246        -0.66472
H         14.76955         0.28388         0.16809
H         13.44983        20.30534        -0.20277
H         17.36984         0.20084        -0.11668
H         15.92254        20.29033         0.28949
H         19.78531         0.24397        -0.43555
H         18.36027        20.28526         0.54754
H         21.92466         1.41454        -0.18757
H         23.07541         3.61745        -0.72260
H         23.12019         6.08179        -0.58362
H         23.23293         8.01197         0.11416
H         23.14392        10.42799        -0.15417
H         23.14436        12.30350         0.27376
H         23.13239        14.74155         0.16052
H         23.07559        16.63163         0.83436
H         20.78326        20.28274         0.96159
H         22.89100        19.01943         1.37678
