         640
 CSIRO Nanostructure Databank - Neutral Graphene Oxide Data Set
C         23.30396        27.29358        -1.59078
C         23.32549        28.66064        -1.69650
C         23.39478        31.57807        -2.00461
C         23.34960        32.93532        -1.92702
C         23.62200        35.82136        -2.49840
C         23.74460        37.16666        -2.79721
C         24.04908        40.06164        -3.38749
C         23.98528        41.41403        -3.39809
C         23.63932        44.38558        -2.97233
C         23.66603        45.75687        -3.11832
C         25.59903        24.46460        -0.75482
C         24.46468        25.15701        -1.11878
C         25.68276        27.28657        -0.95923
C         24.47835        26.57105        -1.23154
C         25.71517        28.70307        -1.08731
C         24.52882        29.41288        -1.48253
C         25.86522        31.55411        -1.60675
C         24.55085        30.82062        -1.62814
C         25.76209        33.00593        -1.22171
C         24.43473        33.72366        -1.25390
C         25.73306        35.85953        -1.28665
C         24.60333        35.15109        -1.73733
C         25.82484        37.26672        -1.50730
C         24.82429        37.93220        -2.27997
C         25.88433        40.08673        -1.73739
C         24.89841        39.34910        -2.45152
C         25.90312        41.50662        -1.83439
C         24.64492        42.19464        -2.28754
C         25.95191        44.37385        -2.20950
C         24.78760        43.67852        -2.53757
C         25.98249        45.79726        -2.29793
C         24.82966        46.48844        -2.77019
C         25.96270        48.61785        -2.46097
C         24.85946        47.90970        -2.86784
C         28.06398        23.00343        -0.12520
C         28.01493        24.42762        -0.10021
C         26.81801        25.14310        -0.45843
C         28.03465        27.27948        -0.19012
C         26.84834        26.56319        -0.54828
C         28.06482        28.71085        -0.27762
C         26.92376        29.42118        -0.76104
C         28.12385        31.55768        -0.49959
C         26.96852        30.82957        -0.88436
C         28.11501        32.99069        -0.51434
C         26.89352        33.69523        -0.83152
C         27.99438        35.84584        -0.29393
C         26.87271        35.15004        -0.72045
C         27.87351        37.32297         0.00568
C         26.88244        38.01752        -0.90333
C         27.86121        40.19293        -0.13622
C         26.88769        39.39972        -0.97720
C         28.01914        41.60946        -0.64007
C         27.03825        42.23270        -1.39421
C         28.24123        44.45887        -1.13835
C         27.23896        43.63849        -1.91870
C         28.25536        45.86845        -1.26741
C         27.12820        46.55170        -1.86245
C         28.23966        48.72252        -1.41055
C         27.10937        47.96084        -1.92013
C         28.25584        50.13448        -1.46958
C         30.45387        22.99736         0.39519
C         29.22951        22.31750         0.11055
C         30.42227        24.42557         0.52255
C         29.19278        25.14481         0.26776
C         30.30385        27.32150         0.81397
C         29.16343        26.56606         0.27939
C         30.40556        28.76309         0.55673
C         29.26224        29.43402         0.05071
C         30.50228        31.56618         0.19258
C         29.28904        30.85313        -0.06810
C         30.46140        32.99331         0.13898
C         29.27522        33.70829        -0.12631
C         30.36167        35.90572         0.35602
C         29.23124        35.16825        -0.01664
C         30.38647        37.35005         0.36291
C         29.19830        38.05936         0.07113
C         30.38051        40.18152         0.29454
C         29.19307        39.46863         0.03733
C         30.35528        41.65343         0.41687
C         29.13295        42.38903        -0.09722
C         30.40927        44.52939         0.01588
C         29.27001        43.81208        -0.44425
C         30.42593        45.93236        -0.11370
C         29.34105        46.61276        -0.71680
C         30.47190        48.80612        -0.34883
C         29.34207        48.05365        -0.81633
C         30.46238        50.22077        -0.45616
C         29.33499        50.86223        -0.98071
C         32.91280        20.17326         0.48000
C         31.74431        20.85083         0.46817
C         32.90704        23.01619         0.71059
C         31.68553        22.29733         0.52246
C         32.86909        24.44138         0.87045
C         31.62463        25.11547         0.81175
C         32.85350        27.30872         1.16719
C         31.59291        26.55459         1.09626
C         32.82499        28.73127         1.20380
C         31.62455        29.45817         0.80550
C         33.06591        31.52005         0.51951
C         31.68770        30.85431         0.54125
C         32.98980        33.04009         0.55916
C         31.70474        33.75355         0.33974
C         32.84807        35.93471         1.03739
C         31.58303        35.18095         0.76064
C         32.84241        37.40295         0.88270
C         31.61089        38.07346         0.59144
C         32.82214        40.24592         0.73387
C         31.60444        39.49969         0.52809
C         32.83453        41.67905         0.69184
C         31.61839        42.40835         0.50422
C         32.84024        44.54266         0.59433
C         31.60487        43.80816         0.43937
C         32.84642        45.95541         0.55576
C         31.52875        46.69327         0.57725
C         32.84918        48.82439         0.34289
C         31.62376        48.13495         0.16915
C         32.87469        50.26727         0.30363
C         31.57511        51.03920         0.15771
C         32.97575        53.01450        -0.31654
C         31.86355        52.32743        -0.59212
C         35.23923        18.87368         1.66302
C         35.34793        20.17836         1.20358
C         34.24215        20.86972         0.43473
C         35.34507        23.03805         1.05770
C         34.14830        22.33374         0.79017
C         35.32193        24.45767         1.20751
C         34.08063        25.16761         1.12575
C         35.28009        27.29348         1.78425
C         34.05434        26.58395         1.27473
C         35.26270        28.78304         1.55128
C         34.04820        29.44644         1.46100
C         35.29169        31.66786         1.91068
C         33.92714        30.94600         1.66574
C         35.31665        33.09936         1.40914
C         34.15345        33.78871         1.09208
C         35.32815        35.93506         1.17812
C         34.14422        35.21610         1.03927
C         35.30507        37.39364         1.20857
C         34.03926        38.10818         1.05066
C         35.24142        40.27591         1.18395
C         34.03623        39.54627         0.97431
C         35.27359        41.67776         1.07334
C         34.05922        42.39896         0.83211
C         35.29634        44.55380         0.90787
C         34.06504        43.82678         0.76526
C         35.29766        45.98158         0.85082
C         34.06451        46.68311         0.64822
C         35.36280        48.84020         0.33452
C         34.05958        48.10989         0.54317
C         35.30805        50.31239         0.66134
C         34.05025        50.97131         0.54764
C         35.28970        53.18284         0.67309
C         33.95418        52.47691         0.70487
C         35.30471        54.59021         0.59348
C         37.55914        18.90754         2.32146
C         36.33339        18.26043         2.30164
C         37.75863        20.20523         1.77532
C         36.57372        20.89350         1.35930
C         37.79762        23.01767         1.44310
C         36.58815        22.31856         1.21878
C         37.77322        24.43897         1.48248
C         36.56019        25.16414         1.37653
C         37.76102        27.32367         1.36399
C         36.56926        26.59666         1.45195
C         37.74359        28.78124         1.34733
C         36.51826        29.50010         1.50002
C         37.75320        31.62058         1.37988
C         36.53352        30.90838         1.49010
C         37.77628        33.06825         1.44711
C         36.55530        33.80250         1.45871
C         37.80035        35.92328         1.40484
C         36.57214        35.22867         1.33457
C         37.81388        37.40212         1.11454
C         36.48708        38.07889         1.37270
C         37.77098        40.28480         1.66920
C         36.45418        39.53631         1.57646
C         37.75124        41.70226         1.31382
C         36.52895        42.40158         1.14640
C         37.75501        44.55207         1.33855
C         36.50724        43.82181         1.06773
C         37.75839        46.05864         1.45375
C         36.50292        46.76093         1.08974
C         37.75113        48.90683         1.41090
C         36.53687        48.12583         0.94418
C         37.77532        50.34500         0.94931
C         36.50421        51.03504         0.82915
C         37.76693        53.22600         1.05621
C         36.48752        52.46939         0.79880
C         37.74343        54.65563         0.57556
C         36.51034        55.30014         0.48668
C         40.66864        15.75229         1.45606
C         39.67720        16.36725         2.18946
C         40.41754        18.61817         1.45312
C         39.56972        17.77664         2.18550
C         40.28654        20.09292         1.44557
C         39.05013        20.83698         1.64955
C         40.26652        22.98243         1.49719
C         39.05228        22.27672         1.52001
C         40.34179        24.43936         1.67485
C         39.00683        25.20182         1.70852
C         40.23285        27.29380         1.15205
C         39.01809        26.63133         1.37212
C         40.16872        28.73343         0.82873
C         38.94301        29.48941         1.15363
C         40.22817        31.63024         1.09925
C         38.97396        30.90941         1.18302
C         40.23688        33.05760         1.24326
C         39.00476        33.76927         1.38857
C         40.26579        35.90377         1.51321
C         39.01770        35.20559         1.45814
C         40.24080        37.32301         2.03985
C         39.04077        38.14259         1.60103
C         40.28323        40.27909         1.62097
C         39.05412        39.52139         1.61924
C         40.29947        41.65299         1.33574
C         39.02433        42.34730         1.03774
C         40.27773        44.61251         1.19860
C         39.03830        43.88351         1.00677
C         40.26426        46.02400         1.17743
C         39.04004        46.76784         1.24805
C         40.26634        48.86722         1.01134
C         39.04832        48.16535         1.15719
C         40.25681        50.30833         0.80952
C         38.97927        51.02161         0.78591
C         40.16957        53.15776         0.38386
C         39.00356        52.46651         0.65729
C         40.20797        54.60660         0.32364
C         38.99600        55.34703         0.40246
C         40.22915        57.44509         0.19875
C         39.03697        56.76970         0.30615
C         42.73243        15.93076         0.12785
C         41.63694        16.54808         0.79343
C         42.63166        18.72491         0.28602
C         41.54866        17.97484         0.82927
C         42.55348        20.18973         0.36346
C         41.43421        20.80809         1.09311
C         42.81231        23.03766         1.12565
C         41.51253        22.24345         1.38402
C         42.73928        24.50133         0.99353
C         41.54659        25.19275         1.25907
C         42.71872        27.33962         0.86204
C         41.48845        26.61073         1.09731
C         42.73166        28.76021         0.79646
C         41.46217        29.49607         0.68350
C         42.68981        31.64035         0.91680
C         41.45019        30.94816         0.91996
C         42.68728        33.06042         1.04241
C         41.46293        33.77424         1.19426
C         42.73212        35.91951         1.27285
C         41.46885        35.21051         1.35452
C         42.77715        37.35999         1.42652
C         41.57348        38.06599         1.90094
C         42.78812        40.26381         1.28891
C         41.57284        39.58205         1.76359
C         42.76020        41.70082         1.14667
C         41.51526        42.38260         1.26700
C         42.75900        44.53853         0.85963
C         41.55647        43.87682         1.46589
C         42.66166        45.95780         0.39406
C         41.48351        46.73006         0.94023
C         42.74314        48.82211         0.62342
C         41.49226        48.13097         0.87794
C         42.75605        50.30980         0.87734
C         41.43782        50.97611         0.55433
C         42.71720        53.14558         0.01652
C         41.41524        52.39373         0.14897
C         42.69971        54.61983         0.09819
C         41.45284        55.30601         0.17873
C         42.69473        57.43159         0.07308
C         41.46021        56.73505         0.14810
C         43.76208        16.67949        -0.38791
C         44.96393        18.87032        -0.61141
C         43.76352        18.10092        -0.27351
C         45.04153        20.25104        -0.33814
C         43.82473        20.98138         0.05660
C         45.15229        23.06763         0.32107
C         43.96176        22.36383         0.51485
C         45.15695        24.48142         0.53595
C         43.95223        25.20140         0.71590
C         45.17996        27.36000         0.59659
C         43.95301        26.63854         0.74228
C         45.17788        28.78276         0.62456
C         43.94057        29.48745         0.73333
C         45.15415        31.64459         0.67355
C         43.93191        30.93162         0.75919
C         45.14212        33.07466         0.74545
C         43.92456        33.76819         0.96403
C         45.15488        35.90862         0.75189
C         43.90374        35.19811         1.03260
C         45.17013        37.40216         0.78071
C         43.94204        38.09580         1.20110
C         45.21506        40.22121         0.83872
C         43.97266        39.53686         1.15577
C         45.14470        41.65112         0.35809
C         43.95040        42.40890         0.86699
C         45.20106        44.55217         0.49067
C         43.94561        43.83686         0.71525
C         45.18224        45.98987         0.42729
C         43.96881        46.69535         0.45610
C         45.16157        48.83993        -0.06501
C         43.92363        48.12389         0.40972
C         45.19424        50.31212         0.25990
C         44.00381        51.01657         0.40394
C         45.18232        53.16480         0.17313
C         44.00159        52.45175         0.26491
C         45.17702        54.59421        -0.06939
C         43.91416        55.32494         0.01994
C         43.88947        56.74802         0.02352
C         47.29897        18.92614        -1.32297
C         46.12663        18.23024        -1.11800
C         47.40858        20.30629        -1.01164
C         46.25864        20.97523        -0.50351
C         47.55193        23.06173        -0.34121
C         46.34176        22.37700        -0.16960
C         47.69393        24.45446         0.12219
C         46.42846        25.20418         0.55778
C         47.63292        27.35527         0.26875
C         46.42265        26.66641         0.46585
C         47.63551        28.78908         0.32436
C         46.41106        29.49896         0.52010
C         47.64592        31.61038         0.48379
C         46.40595        30.92361         0.54656
C         47.62728        33.09576         0.24954
C         46.39160        33.80722         0.72277
C         47.69278        35.92073         1.14043
C         46.41958        35.17115         0.83466
C         47.64967        37.41092         0.87698
C         46.47500        38.10434         0.88267
C         47.67364        40.26390         0.54435
C         46.42493        39.55485         0.79512
C         47.64431        41.72261         0.43917
C         46.44475        42.41115         0.49242
C         47.67837        44.57023         0.56428
C         46.42355        43.85261         0.50695
C         47.67243        46.00678         0.49541
C         46.44141        46.71336         0.38949
C         47.65958        48.83550         0.17529
C         46.44718        48.11829         0.24756
C         47.65101        50.27596         0.06011
C         46.44757        50.98833         0.16582
C         47.67447        53.14603        -0.23022
C         46.49764        52.47211         0.43476
C         47.58060        54.47465        -0.56554
C         46.36592        55.21291        -0.42101
C         49.80286        20.40048        -1.72841
C         48.63699        21.03606        -1.22229
C         49.91907        23.15711        -1.11889
C         48.70267        22.42081        -0.90597
C         49.97797        24.58013        -0.86537
C         48.84449        25.25593        -0.31136
C         50.04674        27.39429        -0.34841
C         48.84643        26.64771        -0.09474
C         50.08181        28.79531        -0.12440
C         48.86020        29.50417         0.20250
C         50.17123        31.63918         0.47982
C         48.85394        30.91363         0.32085
C         50.12108        33.12717         0.22522
C         48.91914        33.83443         0.49272
C         50.12907        35.97513         0.39315
C         48.92017        35.22567         0.60426
C         50.11723        37.37799         0.35297
C         48.96824        38.14698         0.94883
C         50.08080        40.32246        -0.02316
C         48.86370        39.58050         0.48287
C         50.10049        41.73662         0.47351
C         48.91002        42.43431         0.53416
C         50.16053        44.57843         0.72228
C         48.89712        43.87511         0.65334
C         50.15083        46.02472         0.60719
C         48.90559        46.71962         0.45727
C         50.13441        48.83549         0.10835
C         48.90459        48.13394         0.26946
C         50.13087        50.24900        -0.14549
C         48.90880        50.97865        -0.11695
C         50.13949        53.01993        -0.61816
C         48.91696        52.38532        -0.33057
C         50.97728        21.09638        -1.89972
C         52.30959        23.20642        -1.79883
C         51.07003        22.48464        -1.60374
C         52.34405        24.61763        -1.59604
C         51.16025        25.30623        -1.13142
C         52.39324        27.45120        -1.07587
C         51.20752        26.71900        -0.85283
C         52.46263        28.82733        -0.77865
C         51.29581        29.51570        -0.32843
C         52.50393        31.63798        -0.45733
C         51.33922        30.94034        -0.17670
C         52.52015        33.13906        -0.57655
C         51.29969        33.83492        -0.02665
C         52.59224        35.93470        -0.03141
C         51.32970        35.24012         0.07931
C         52.58569        37.41014         0.29409
C         51.32737        38.11417        -0.20160
C         52.58228        40.26305         0.24947
C         51.37690        39.58632         0.15797
C         52.63750        41.69642         0.44020
C         51.37721        42.37233         0.93401
C         52.64706        44.53945         0.92613
C         51.36188        43.86831         0.76146
C         52.63526        46.08402         0.83265
C         51.35677        46.74600         0.54858
C         52.61014        48.79760        -0.04970
C         51.36938        48.12942         0.20248
C         52.61068        50.17627        -0.40103
C         51.36262        50.92152        -0.40874
C         51.33182        52.30708        -0.65754
C         54.68629        23.25054        -2.36600
C         53.50577        22.55337        -2.18847
C         54.73450        24.65717        -2.19217
C         53.55169        25.32338        -1.81307
C         54.88754        27.35915        -1.22584
C         53.56995        26.83055        -1.78686
C         54.91288        28.86925        -1.24882
C         53.70648        29.55272        -0.94540
C         54.95901        31.67984        -0.91712
C         53.71900        30.95868        -0.79299
C         55.02621        33.07330        -0.62661
C         53.80691        33.73680        -0.02312
C         55.02095        35.94892        -0.46777
C         53.76378        35.24222        -0.17705
C         55.05848        37.44370        -0.42954
C         53.83451        38.17073        -0.06860
C         55.09560        40.27580        -0.03584
C         53.84641        39.53968         0.05548
C         55.09483        41.67720         0.11949
C         53.85154        42.38752         0.37267
C         55.10770        44.52083         0.50254
C         53.91084        43.82397         0.59799
C         55.16067        46.02085         0.80896
C         53.87953        46.74604         0.48100
C         55.09159        48.75532        -0.26713
C         53.85960        48.07533         0.03577
C         55.04114        50.09808        -0.66303
C         53.83659        50.79487        -0.72261
C         57.11533        24.82481        -3.05377
C         55.97825        25.40616        -2.36364
C         57.28916        27.45922        -2.01567
C         56.07481        26.72663        -1.91146
C         57.32872        28.85155        -1.79568
C         56.11630        29.56408        -1.43326
C         57.39687        31.69126        -1.35233
C         56.15473        30.98796        -1.25786
C         57.45127        33.08439        -1.06579
C         56.24447        33.74793        -0.68948
C         57.57564        35.94357        -0.42210
C         56.29296        35.18204        -0.31959
C         57.55332        37.43180        -0.47153
C         56.35206        38.14562        -0.32606
C         57.57322        40.26591        -0.22945
C         56.33233        39.56063        -0.19945
C         57.56923        41.68769        -0.07167
C         56.33679        42.39502         0.10444
C         57.59341        44.49921         0.23367
C         56.35159        43.81383         0.27122
C         57.68251        46.00400         0.41557
C         56.36612        46.70928         0.22758
C         57.61698        48.71516        -0.43155
C         56.34688        48.02479        -0.16802
C         58.31799        25.44498        -3.08140
C         59.67322        27.54876        -2.77813
C         58.56181        26.68523        -2.26163
C         59.66792        28.88689        -2.59938
C         58.53693        29.59041        -2.01920
C         59.80092        31.73320        -1.84290
C         58.58678        30.98204        -1.74988
C         59.85329        33.07469        -1.55637
C         58.69692        33.81687        -1.15536
C         59.94804        35.99162        -1.05079
C         58.77119        35.21295        -0.88954
C         59.96839        37.36053        -0.85084
C         58.78776        38.12450        -0.57742
C         60.00935        40.30168        -0.47526
C         58.79547        39.55507        -0.43675
C         60.01539        41.66265        -0.29655
C         58.80856        42.39386        -0.08265
C         60.06343        44.56826         0.07712
C         58.80864        43.81024         0.08089
C         60.07082        45.88517        -0.20079
C         58.75627        46.54208        -0.53744
C         58.77786        48.04591        -0.53891
O         39.01524        43.09873        -0.23394
O         45.04236        36.71095        -0.51636
O         52.70641        45.37767         2.14506
O         39.74152        24.88785         2.93613
O         30.67040        26.92400         2.18530
O         41.80574        38.91416         3.07535
O         29.32452        42.13981         1.36145
O         31.97671        35.44941         2.14766
O         38.59245        18.29298         3.04061
O         47.37471        24.65113         1.54220
O         42.48512        22.53708         2.47576
O         32.65593        33.57335        -0.79290
O         40.68882        29.07186        -0.50986
O         42.73624        20.85347        -0.95250
O         57.04295        35.45527         0.90762
O         36.99842        39.95841         2.88537
O         42.02264        52.62417        -1.18639
O         54.94621        36.70294        -1.73097
O         47.52412        33.10823        -1.17883
O         37.74289        45.21861         2.65603
O         27.28076        40.26699         1.21661
H         27.85823        40.89663         1.71750
O         35.18019        27.16204         3.26379
H         34.34757        27.60173         3.54087
O         53.50727        27.27706        -3.17508
H         52.66086        26.96288        -3.55591
O         54.93969        26.96094         0.17602
H         55.74501        27.35528         0.57160
O         31.13558        46.73329         2.00770
H         31.03199        45.80373         2.30571
O         33.39209        52.75220         2.03822
H         33.97805        52.32255         2.69723
O         37.85613        53.33639         2.54118
H         37.09132        53.87897         2.83092
O         27.87636        43.43831        -3.23553
H         27.97374        44.32193        -3.65044
O         33.70844        31.15160        -0.72028
H         33.37299        31.77584        -1.40416
O         51.26064        38.01159        -1.64346
H         50.69563        38.75362        -1.96920
O         34.67392        20.82116        -0.97796
H         33.99302        21.28965        -1.50581
O         37.95898        37.49536        -0.36685
H         37.31465        36.87072        -0.76502
O         51.39842        42.17271         2.40807
H         52.01228        42.83931         2.78637
O         35.59994        48.79832        -1.13645
H         35.59336        47.85395        -1.40352
O         58.10455        46.26701         1.77872
H         57.30326        46.17720         2.34712
O         53.84930        33.46558         1.40494
H         54.74447        33.69183         1.73504
O         55.33382        46.09898         2.27856
H         54.46423        45.81657         2.66237
O         50.45454        31.55306         1.92751
H         50.52585        30.60173         2.15653
O         52.53936        33.42895        -2.00327
H         51.67143        33.17653        -2.38264
O         49.89483        40.40398        -1.50604
H         49.05431        40.88647        -1.66607
O         27.31196        37.41027         1.35784
H         27.19992        38.37524         1.55640
O         41.75721        44.02975         2.94570
H         42.53611        43.48508         3.19255
O         47.83950        35.82717         2.60888
H         48.46805        36.54119         2.87996
O         42.85113        50.42718         2.35281
H         42.07483        49.96452         2.73674
O         39.99743        37.14395         3.47311
H         40.42001        37.91375         3.92449
O         24.00208        33.83689         0.15336
H         24.65956        34.39901         0.61775
O         58.36685        46.11544        -1.87701
H         59.04089        46.44540        -2.50640
O         31.09455        51.39083         1.48660
H         31.78756        51.96850         1.89967
O         23.71599        42.11258        -1.14118
H         23.63455        41.16475        -0.90001
O         59.00795        26.19849        -0.93410
H         58.31283        25.58689        -0.60888
O         52.47356        37.47676         1.75903
H         53.21391        36.96519         2.14914
O         44.90932        41.53174        -1.10071
H         45.47603        40.80443        -1.43603
O         33.14111        31.14347         2.87483
H         32.38459        30.51884         2.85956
O         35.48075        31.80270         3.34770
H         34.58612        31.85782         3.75633
O         46.74792        52.59316         1.88968
H         46.76850        53.55167         2.09726
O         49.33863        38.20140         2.39172
H         50.29890        38.41358         2.44455
O         45.04945        48.78966        -1.54181
H         45.84691        49.22670        -1.91047
O         26.29301        31.57257        -3.04118
H         26.45313        30.64040        -3.30342
O         37.62239        48.98947         2.87581
H         37.63276        48.07229         3.22643
O         42.36230        45.86261        -1.06076
H         42.57649        46.73388        -1.46032
H         22.37351        26.73843        -1.77801
H         22.40030        29.18455        -1.96946
H         22.49896        31.04869        -2.36222
H         22.41689        33.44943        -2.19836
H         22.74606        35.27461        -2.87246
H         22.96152        37.65721        -3.39112
H         23.49018        39.48386        -4.13808
H         23.35475        41.93602        -4.13254
H         22.71833        43.82862        -3.19336
H         22.77701        46.29839        -3.47212
H         25.54591        23.37079        -0.67895
H         23.53145        24.61433        -1.32737
H         25.94065        49.71262        -2.53517
H         23.97615        48.43600        -3.25728
H         27.16133        22.42892        -0.37054
H         27.40569        50.68501        -1.89178
H         29.21301        21.22204         0.04344
H         29.28793        51.95938        -1.00634
H         32.89321        19.07768         0.39091
H         30.80618        20.28008         0.43009
H         33.20230        53.95759        -0.83581
H         31.14858        52.70689        -1.33702
H         34.29438        18.32074         1.58232
H         34.35510        55.13953         0.54099
H         36.22933        17.27094         2.76417
H         36.45633        56.37779         0.27969
H         40.75354        14.65702         1.42677
H         38.95809        15.78293         2.77790
H         40.24341        58.54377         0.16037
H         38.10429        57.34667         0.35840
H         42.76238        14.83343         0.06573
H         42.68583        58.53104         0.06222
H         44.60376        16.16068        -0.86363
H         44.83057        57.31263        -0.01770
H         48.16166        18.38322        -1.73044
H         46.10703        17.16193        -1.36824
H         48.45061        55.01096        -0.97053
H         46.38695        56.28301        -0.66567
H         49.78382        19.33309        -1.98367
H         50.17053        54.10415        -0.79041
H         51.85130        20.55861        -2.28931
H         52.25953        52.85638        -0.86399
H         55.59675        22.69881        -2.63750
H         53.51697        21.46541        -2.33574
H         55.96150        50.63522        -0.92580
H         53.86223        51.84858        -1.02868
H         56.97725        23.88047        -3.60044
H         57.61818        49.81230        -0.49070
H         59.16868        24.98911        -3.60988
H         60.53894        27.05459        -3.24426
H         60.52812        29.47340        -2.95234
H         60.73161        31.22435        -2.12782
H         60.82275        33.58581        -1.63010
H         60.88888        35.50113        -1.33691
H         60.92876        37.88057        -0.96708
H         60.96459        39.78515        -0.63783
H         60.97509        42.19487        -0.32882
H         61.00608        44.04504         0.29192
H         61.00773        46.46233        -0.22330
H         59.72436        48.57928        -0.71804
