         630
 CSIRO Nanostructure Databank - Neutral Graphene Oxide Data Set
C         23.18424        27.29874        -1.36824
C         23.10364        28.63307        -1.21051
C         23.09869        31.60527        -1.16516
C         23.08444        33.02409        -1.29719
C         22.99534        36.00559        -1.15425
C         22.95041        37.37682        -1.02748
C         22.92493        40.34213        -0.60086
C         22.95583        41.69963        -0.39797
C         22.93881        44.58222         0.13216
C         22.93351        45.95289         0.27794
C         25.57373        24.49179        -0.59240
C         24.41251        25.16738        -0.93127
C         25.60903        27.28851        -0.87596
C         24.41586        26.57272        -1.06799
C         25.60145        28.76943        -1.20075
C         24.29584        29.41937        -0.70197
C         25.57345        31.63388        -1.21948
C         24.26379        30.89588        -1.03030
C         25.47547        33.09499        -0.83903
C         24.23821        33.78593        -1.07692
C         25.37804        35.92609        -0.66403
C         24.20158        35.24048        -0.97663
C         25.32814        37.37970        -0.39508
C         24.10199        38.15199        -0.68516
C         25.39073        40.31080        -0.48923
C         24.11481        39.55521        -0.59008
C         25.39865        41.74993        -0.15561
C         24.17110        42.43013        -0.14808
C         25.39086        44.54614         0.25260
C         24.15564        43.85288         0.08505
C         25.36493        45.94879         0.46700
C         24.14972        46.66304         0.42812
C         25.28879        48.83091         0.38678
C         24.14312        48.10816         0.38397
C         28.01220        23.07297         0.31240
C         28.00220        24.50597         0.00594
C         26.78006        25.19181        -0.35361
C         27.99074        27.36697        -0.21022
C         26.79427        26.61209        -0.50273
C         27.94740        28.78626        -0.23548
C         26.80791        29.51150        -0.67450
C         27.90002        31.68185        -0.23433
C         26.77452        30.91963        -0.63833
C         27.86892        33.10616        -0.16903
C         26.62029        33.78898        -0.43553
C         27.75520        35.92938         0.00157
C         26.59282        35.22376        -0.37725
C         27.86618        37.32787        -0.58598
C         26.62225        38.09767        -0.20022
C         27.89068        40.21443         0.29548
C         26.67533        39.57280        -0.38377
C         27.89757        41.72105         0.08363
C         26.64409        42.43140         0.04799
C         27.89596        44.55811         0.33548
C         26.65085        43.84443         0.22058
C         27.90637        45.96943         0.51969
C         26.62181        46.65759         0.74028
C         27.86047        48.87597         0.41125
C         26.58176        48.19489         0.68205
C         27.87545        50.25224         0.10823
C         30.45582        23.06114         0.03208
C         29.16201        22.37541         0.40695
C         30.42968        24.49383         0.58509
C         29.18447        25.22507         0.13112
C         30.42245        27.34474         0.33630
C         29.20310        26.65994         0.09717
C         30.40506        28.79660         0.53068
C         29.10008        29.54126         0.26676
C         30.31379        31.70326         0.25600
C         29.14212        31.01245         0.08141
C         30.34128        33.18345         0.57461
C         28.98798        33.83103         0.31944
C         30.50947        35.99346        -1.03704
C         28.82581        35.20660         0.59454
C         30.39269        37.43854        -0.65979
C         29.16747        38.09420        -0.41161
C         30.36863        40.20308        -0.10476
C         29.16164        39.48910        -0.14674
C         30.36304        41.63967         0.26461
C         29.09885        42.41189         0.19090
C         30.38002        44.56193         0.30179
C         29.14494        43.84733         0.27375
C         30.38464        46.00679         0.42134
C         29.11367        46.71427         0.54888
C         30.31309        48.92904         0.60241
C         29.07151        48.14795         0.54200
C         30.29854        50.34575         0.22264
C         29.06442        50.96226        -0.02713
C         33.06485        20.29300         0.01150
C         31.86569        20.90340        -0.05581
C         32.99809        23.10301        -0.01102
C         31.74535        22.31972         0.46692
C         32.94301        24.57111         0.34838
C         31.72459        25.24295         0.35372
C         32.89778        27.40599         0.49163
C         31.68309        26.66996         0.40480
C         32.87712        28.85435         0.50259
C         31.66996        29.54038         0.46539
C         32.81172        31.79277         0.61573
C         31.63566        31.00023         0.08967
C         32.82377        33.23286         0.25222
C         31.59855        33.89539         0.01087
C         32.86637        35.96794        -0.39991
C         31.64645        35.24592        -0.42554
C         32.86460        37.41412        -0.56872
C         31.61659        38.13913        -0.53254
C         32.84564        40.28018        -0.38839
C         31.60867        39.54663        -0.31743
C         32.87470        41.69762        -0.30138
C         31.66017        42.40208         0.14809
C         32.84702        44.54721        -0.05807
C         31.63686        43.87808         0.10307
C         32.92944        45.98535         0.35322
C         31.59858        46.69639         0.35217
C         32.84382        48.85386         0.00732
C         31.67006        48.14588         0.53197
C         32.74612        50.28314        -0.21870
C         31.53557        51.05439         0.09861
C         32.84548        53.12990         0.20253
C         31.61922        52.45205         0.13258
C         35.52274        18.90229         0.91499
C         35.47832        20.31279         0.78588
C         34.26975        21.00980         0.43801
C         35.43786        23.16060         0.68037
C         34.25643        22.40378         0.44342
C         35.41126        24.59529         0.62766
C         34.16855        25.29457         0.47503
C         35.37603        27.44580         0.63842
C         34.14115        26.71636         0.53403
C         35.34638        28.89842         0.62542
C         34.13587        29.57003         0.55823
C         35.36448        31.78161         0.46949
C         34.11254        31.04372         0.70109
C         35.32740        33.17716         0.25802
C         34.07453        33.89527         0.12775
C         35.33130        36.01783        -0.15147
C         34.08685        35.29481        -0.12961
C         35.33125        37.44092        -0.45829
C         34.06208        38.12667        -0.59268
C         35.25340        40.28868        -0.83070
C         34.05890        39.57287        -0.62899
C         35.26956        41.70769        -0.83038
C         34.05220        42.42129        -0.55608
C         35.24523        44.59177        -0.68400
C         34.07268        43.87058        -0.42659
C         35.28034        46.04046        -0.56810
C         34.09331        46.74431        -0.23676
C         35.29312        48.89488        -0.43103
C         34.05344        48.16433        -0.27988
C         35.33692        50.29589        -0.23889
C         34.10430        51.07884        -0.30326
C         35.32570        53.06935         0.53882
C         34.07833        52.46619         0.14359
C         35.36135        54.37086         1.09161
C         37.90807        18.94895         1.44525
C         36.69545        18.24726         1.24439
C         37.89139        20.36985         1.33044
C         36.67342        21.05571         1.02376
C         37.87195        23.23129         1.10454
C         36.65918        22.48295         0.95252
C         37.85692        24.64070         1.00254
C         36.61482        25.33218         0.80736
C         37.83159        27.52583         1.16072
C         36.58527        26.75953         0.78396
C         37.82571        28.95877         0.68927
C         36.60592        29.63553         0.61156
C         37.82042        31.77653         0.33220
C         36.58582        31.06536         0.44458
C         37.79217        33.18660         0.22648
C         36.56568        33.88779         0.14369
C         37.79608        36.06670        -0.01500
C         36.52988        35.32182        -0.00497
C         37.79355        37.53069        -0.36664
C         36.50393        38.14904        -0.64481
C         37.76475        40.30205        -1.01724
C         36.48588        39.53170        -1.23804
C         37.73933        41.71889        -1.04652
C         36.49070        42.41503        -1.01606
C         37.75417        44.58722        -1.05216
C         36.44059        43.88748        -1.29594
C         37.74103        46.07675        -1.26566
C         36.48831        46.76680        -0.77113
C         37.77040        48.89365        -0.59057
C         36.51993        48.17384        -0.60124
C         37.79343        50.28811        -0.26939
C         36.56130        50.98468        -0.05565
C         37.79134        53.01449         0.64846
C         36.55625        52.36012         0.36013
C         37.79307        54.32634         1.19749
C         36.55826        54.97441         1.42822
C         40.40658        16.17110         2.04129
C         39.21059        16.82281         1.81348
C         40.35582        18.96705         1.86582
C         39.15520        18.23925         1.70932
C         40.30577        20.43281         1.92762
C         39.08458        21.13590         1.52670
C         40.35310        23.25901         1.28928
C         39.10411        22.53053         1.35302
C         40.34030        24.66160         1.01744
C         39.10223        25.37834         0.98651
C         40.31778        27.48998         0.65382
C         39.10676        26.77984         0.87353
C         40.30933        28.91318         0.44940
C         39.06683        29.64937         0.49781
C         40.30824        31.75568         0.08561
C         39.06531        31.05251         0.31859
C         40.31655        33.15720        -0.03180
C         39.09333        33.94304         0.35906
C         40.25155        35.98885        -0.77927
C         39.01946        35.28029        -0.33933
C         40.24767        37.47464        -0.91587
C         39.03531        38.18778        -0.82811
C         40.23312        40.31361        -1.12450
C         39.00164        39.60073        -1.00697
C         40.21430        41.74395        -1.10760
C         38.98007        42.44664        -1.04454
C         40.22808        44.61011        -0.90452
C         38.96118        43.89567        -1.00664
C         40.24351        46.02900        -0.80470
C         39.01455        46.76822        -0.84693
C         40.27766        48.88434        -0.73623
C         38.99701        48.15480        -0.70546
C         40.28877        50.38167        -0.47611
C         39.01383        51.02202        -0.11946
C         40.27914        53.06370         0.50878
C         39.03116        52.34097         0.36188
C         40.26350        54.36735         1.01684
C         39.05297        54.99516         1.46242
C         40.35220        56.88793         2.34160
C         39.12230        56.23461         2.11281
C         42.87948        16.21188         2.22792
C         41.62719        16.88892         2.10194
C         42.85665        19.02836         1.89280
C         41.60734        18.30773         1.99935
C         42.87204        20.42586         1.67024
C         41.63729        21.20046         1.83566
C         42.81380        23.24351         1.05486
C         41.59215        22.58830         1.37437
C         42.80398        24.64096         0.79357
C         41.56676        25.35910         0.82471
C         42.77886        27.45586         0.35200
C         41.55052        26.76884         0.60821
C         42.73679        28.84312         0.05224
C         41.52317        29.58036         0.11988
C         42.72749        31.72692        -0.30092
C         41.52831        31.01800        -0.07310
C         42.74641        33.14513        -0.35403
C         41.51817        33.86844        -0.29523
C         42.73266        35.95278        -0.78696
C         41.53397        35.27237        -0.59427
C         42.69888        37.33527        -1.44075
C         41.45435        38.15411        -1.15359
C         42.67917        40.32380        -1.32821
C         41.46309        39.58577        -1.22104
C         42.68560        41.73193        -1.16615
C         41.45703        42.45900        -1.06963
C         42.70305        44.55560        -0.67991
C         41.45909        43.87841        -0.89024
C         42.72043        45.99009        -0.52250
C         41.49273        46.72233        -0.61279
C         42.73240        48.84792        -0.32575
C         41.52817        48.13916        -0.53891
C         42.75362        50.27473        -0.08889
C         41.55201        51.01808        -0.06678
C         42.79046        53.05881         0.46779
C         41.54780        52.39326         0.27570
C         42.81425        54.52320         0.59839
C         41.49382        55.17803         0.99729
C         42.80880        57.02043         2.08198
C         41.53334        56.40858         1.80022
C         44.06355        16.89566         2.13403
C         45.30756        18.99749         1.60587
C         44.09300        18.30940         1.89936
C         45.28536        20.36434         1.21255
C         44.05999        21.09798         1.28765
C         45.25572        23.16954         0.66325
C         44.04621        22.50621         1.01021
C         45.25709        24.58678         0.46899
C         44.03575        25.32457         0.53820
C         45.25743        27.43335         0.09543
C         44.01930        26.73579         0.33369
C         45.24644        28.79749        -0.20466
C         43.97507        29.48971        -0.39473
C         45.25684        31.74180        -0.51558
C         43.98136        31.00797        -0.58341
C         45.24330        33.14157        -0.43830
C         43.98203        33.86791        -0.44100
C         45.24449        36.05604        -0.41430
C         43.96584        35.26339        -0.58554
C         45.22937        37.28694        -1.27744
C         43.98221        38.10418        -1.19456
C         45.20165        40.40416        -1.50699
C         43.97070        39.59966        -1.30440
C         45.19301        41.75095        -1.11361
C         43.93062        42.43794        -0.98221
C         45.19468        44.45307        -0.33613
C         43.91458        43.80948        -0.68389
C         45.19611        45.96886        -0.17632
C         43.93318        46.69955        -0.37017
C         45.19418        48.81095        -0.09486
C         43.96383        48.11945        -0.28423
C         45.21051        50.17725         0.25885
C         43.97955        50.92252         0.26387
C         45.24161        52.96458         0.92138
C         44.00031        52.31750         0.53413
C         45.28495        54.35024         1.20484
C         44.13793        55.26476         0.81320
C         43.99082        56.47626         1.71125
C         47.70971        18.87329         1.17320
C         46.58207        18.31468         1.66691
C         47.68376        20.19304         0.52087
C         46.47039        21.02279         0.72637
C         47.67590        23.11241         0.02210
C         46.45628        22.39622         0.46563
C         47.72494        24.57929         0.15791
C         46.49791        25.29145         0.24846
C         47.74269        27.40208        -0.06795
C         46.49743        26.69680         0.08877
C         47.74012        28.78862        -0.23267
C         46.49129        29.49474        -0.67493
C         47.69654        31.68224        -0.48079
C         46.50252        31.00349        -0.47229
C         47.72975        33.12132        -0.90171
C         46.47710        33.87811        -0.55533
C         47.73131        35.97445        -0.90185
C         46.50217        35.25683        -0.65474
C         47.71378        37.26217        -1.42849
C         46.39366        37.70994        -1.82919
C         47.68960        40.34589        -1.57852
C         46.42158        39.85723        -1.94375
C         47.69000        41.71225        -1.16968
C         46.45461        42.42417        -1.02239
C         47.68539        44.50453        -0.65793
C         46.46856        43.79782        -0.67961
C         47.67067        45.94623        -0.44271
C         46.46845        46.65226        -0.34133
C         47.68220        48.72647         0.25169
C         46.49219        48.14635        -0.46253
C         47.65432        50.05140         0.71178
C         46.43329        50.81306         0.65605
C         47.63967        52.78376         1.54304
C         46.43581        52.18344         1.05152
C         47.62475        54.14974         1.85918
C         46.48016        54.92011         1.66022
C         50.29333        20.26186         0.49661
C         49.00387        20.87618         0.14695
C         50.24721        23.12043         0.17022
C         48.99950        22.36001        -0.06675
C         50.21921        24.53727         0.08351
C         48.96968        25.26081         0.04644
C         50.24188        27.38238        -0.14972
C         48.99158        26.68327        -0.01510
C         50.27243        28.81348        -0.23536
C         48.99938        29.52204        -0.08819
C         50.26334        31.70903        -0.51185
C         48.98833        31.02383        -0.19563
C         50.26287        33.10633        -0.68363
C         48.99888        33.83130        -0.48827
C         50.24385        35.98650        -1.08297
C         49.01452        35.32540        -0.60888
C         50.16543        37.41175        -1.39538
C         48.91074        38.09558        -1.50750
C         50.15244        40.25098        -1.48252
C         48.91476        39.54293        -1.58974
C         50.17361        41.68820        -1.27242
C         48.93135        42.40083        -1.04835
C         50.16944        44.53120        -1.01316
C         48.90565        43.80286        -0.88614
C         50.16606        46.03337        -0.64101
C         48.89573        46.65503        -0.28808
C         50.08730        48.53429         0.76676
C         48.89022        47.97542         0.25239
C         50.05468        49.85981         1.31631
C         48.85632        50.63505         1.24158
C         50.03761        52.51305         2.23431
C         48.85398        51.98703         1.68653
C         51.42539        20.99847         0.61153
C         52.68829        23.16741         0.50851
C         51.45133        22.43509         0.43790
C         52.69041        24.56019         0.26459
C         51.45484        25.25907         0.07453
C         52.75116        27.36861        -0.42473
C         51.45505        26.66386        -0.11893
C         52.72248        28.86612        -0.25882
C         51.48715        29.54790        -0.31695
C         52.70134        31.71638        -0.66875
C         51.48000        30.99705        -0.48669
C         52.68680        33.11226        -0.93729
C         51.45151        33.82291        -0.93988
C         52.58657        35.82536        -1.96088
C         51.40382        35.24752        -1.22075
C         52.60040        37.36188        -1.94858
C         51.37749        38.11402        -1.56940
C         52.66401        40.22710        -1.55461
C         51.40526        39.53580        -1.56790
C         52.67654        41.73614        -1.63789
C         51.39462        42.39018        -1.19174
C         52.64148        44.49915        -0.70680
C         51.43454        43.79054        -0.93973
C         52.60654        45.87665        -0.29870
C         51.41428        46.59577        -0.13946
C         52.50094        48.41709         1.12683
C         51.34922        47.83963         0.60766
C         52.36100        49.45328         2.21614
C         51.21979        50.41062         1.92273
C         51.18820        51.72848         2.37691
C         55.12325        23.20570         0.79349
C         53.93099        22.51879         0.80280
C         55.17363        24.60159         0.54426
C         53.92889        25.31410         0.34918
C         55.14930        27.47586         0.60763
C         53.93171        26.69270         0.20356
C         55.13957        28.91819         0.13918
C         53.95442        29.58488        -0.19729
C         55.14299        31.75301        -0.47461
C         53.95959        31.02857        -0.46007
C         55.17327        33.14103        -0.86738
C         53.92939        33.84328        -1.14847
C         55.15894        35.85687        -1.92741
C         53.90540        35.17994        -1.54581
C         55.23245        37.37517        -2.22369
C         53.90312        38.12049        -2.04526
C         55.14152        40.23049        -1.44220
C         53.89817        39.55227        -1.63912
C         55.13157        41.64589        -1.07661
C         53.91365        42.37426        -1.04473
C         55.09543        44.36160        -0.22628
C         53.89920        43.74734        -0.67838
C         55.15220        45.81394         0.04812
C         53.87253        46.60145        -0.02477
C         55.05580        48.50260         1.31467
C         53.81402        47.93259         0.67599
C         54.86467        49.58640         2.31876
C         53.66132        50.07795         2.64197
C         57.61761        24.58078         0.05568
C         56.40480        25.29128         0.30960
C         57.60632        27.39292        -0.02126
C         56.41793        26.71861         0.24591
C         57.68848        28.86207         0.11863
C         56.38908        29.66001         0.29185
C         57.67452        31.73222        -0.46097
C         56.40095        31.17922         0.14110
C         57.66089        33.10737        -0.79707
C         56.40260        33.80201        -0.97389
C         57.68962        35.93879        -1.40750
C         56.45134        35.14624        -1.57576
C         57.65831        37.36356        -1.41287
C         56.41165        38.08052        -1.55963
C         57.65089        40.21031        -1.36649
C         56.36900        39.47998        -1.44541
C         57.63102        41.70232        -0.95948
C         56.32606        42.31269        -0.68861
C         57.52780        44.25468         0.31209
C         56.30815        43.63516        -0.19214
C         57.48280        45.56743         0.88726
C         56.30426        46.36620         0.80170
C         57.43711        48.14546         2.02445
C         56.28024        47.65273         1.36605
C         58.77095        25.24178        -0.28611
C         59.96689        27.36884        -0.69879
C         58.80133        26.66701        -0.33866
C         59.98073        28.76909        -0.76507
C         58.89246        29.54782        -0.36818
C         60.07265        31.67636        -0.87789
C         58.87909        30.99270        -0.53480
C         60.07882        33.04165        -1.09791
C         58.88178        33.78359        -1.06578
C         60.09606        35.95273        -1.01282
C         58.88967        35.23440        -1.19219
C         60.08749        37.32983        -1.00453
C         58.88877        38.05910        -1.18519
C         60.07112        40.23117        -0.91747
C         58.90810        39.49623        -1.15186
C         60.04212        41.58365        -0.53305
C         58.84516        42.27742        -0.37959
C         59.89897        44.11109         0.94056
C         58.75299        43.55071         0.30000
C         59.84378        45.33843         1.55149
C         58.64374        46.10292         1.51977
C         58.59322        47.39787         2.09177
O         45.18295        45.06470         0.99811
O         55.91382        35.11774        -2.96211
O         53.07216        37.89767        -3.23520
O         31.16951        41.91134         1.45888
O         54.79258        46.60111        -1.15469
O         40.33539        49.85238        -1.84760
O         50.18500        45.57600        -2.03402
O         57.76197        41.28044        -2.35504
O         48.99117        30.40390         1.14092
O         26.59405        47.47335         1.95656
O         29.81086        35.47360        -1.91260
O         57.19593        29.27675         1.47155
O         54.62963        48.95315        -0.01570
O         33.34148        31.45665         1.91592
O         33.32469        50.74919        -1.48274
O         37.94101        37.05432         1.04394
O         39.35694        35.28786        -1.75258
O         42.02077        55.25340        -0.39105
O         27.75730        40.00404         1.67408
O         26.31270        40.05184        -1.68460
O         31.13582        48.65761         1.79030
O         46.34898        38.73999        -2.77366
O         49.00071        34.65173         0.71248
O         43.86554        30.11556        -1.76085
O         48.26900        22.71971        -1.27411
O         40.95847        20.98640         3.11841
O         44.00590        38.87881         0.03882
O         48.22573        20.15408        -0.84920
O         29.50156        29.19754         1.64580
O         25.91516        37.66722         0.97278
O         46.68623        48.44016        -1.90407
H         46.79572        49.41105        -1.99341
O         51.91883        48.70135         3.41118
H         51.00026        48.39789         3.24558
O         47.81975        33.09380        -2.37068
H         47.06468        32.56615        -2.70888
O         24.32179        29.31639         0.75016
H         23.49369        29.70636         1.09953
O         52.95421        27.17793        -1.89432
H         52.11815        27.43654        -2.33898
O         37.78790        27.61750         2.63896
H         36.94630        28.06158         2.87912
O         30.58829        33.23761         2.01755
H         29.93747        32.65324         2.46081
O         55.12679        27.54587         2.07758
H         55.90714        28.09761         2.33111
O         37.70496        46.24992        -2.73639
H         36.97376        45.66388        -3.06036
O         45.27380        36.48286         0.98360
H         45.36787        35.68217         1.54087
O         36.39233        39.34160        -2.70674
H         36.21594        40.22172        -3.10231
O         36.20975        43.98994        -2.79067
H         36.89702        43.43330        -3.21829
O         31.87071        31.01974        -1.37511
H         31.06135        30.69160        -1.82179
O         52.74355        42.02379        -3.08570
H         53.53370        41.56372        -3.44297
O         30.29915        24.40683         2.04580
H         30.26049        25.32303         2.39520
O         56.37932        31.72157         1.50518
H         56.94022        31.11959         2.04780
O         46.48067        29.37484        -2.15769
H         45.55426        29.59565        -2.43435
O         44.53708        55.80279        -0.48269
H         43.70132        56.04852        -0.94475
O         25.57579        28.88565        -2.64944
H         26.46464        28.66071        -2.99294
O         27.72564        37.15317        -2.02720
H         28.44283        36.52701        -2.31563
O         42.68637        37.07157        -2.87832
H         41.87895        36.55451        -3.08704
O         30.44331        23.19051        -1.42058
H         30.23681        22.31090        -1.80053
O         52.40481        35.41630        -3.34554
H         52.83784        36.10998        -3.89934
O         25.81912        31.64776        -2.67715
H         25.00874        31.99914        -3.10407
O         31.77861        22.20454         1.90362
H         31.34107        22.99952         2.29498
O         39.24979        34.25789         1.77896
H         39.17289        33.42338         2.28723
O         55.54634        37.52053        -3.63132
H         56.03674        36.70590        -3.89815
O         33.27576        45.92652         1.80430
H         32.56927        45.41138         2.25206
O         33.07263        23.07195        -1.46519
H         32.20858        23.41078        -1.80645
O         29.72744        35.83572         1.38495
H         29.45253        36.75983         1.55938
H         22.30328        26.71735        -1.68111
H         22.14626        29.14477        -1.38876
H         22.12498        31.09420        -1.12759
H         22.11494        33.51570        -1.45225
H         22.06746        35.48173        -1.42334
H         21.99713        37.88828        -1.22332
H         21.95201        39.84941        -0.73698
H         22.00048        42.24006        -0.40742
H         21.97863        44.06085         0.03053
H         21.98439        46.50738         0.27172
H         25.54899        23.39695        -0.50794
H         23.47899        24.61017        -1.09571
H         25.24565        49.91323         0.20417
H         23.17730        48.61007         0.22488
H         27.05440        22.57341         0.51792
H         26.92919        50.79007        -0.03046
H         29.15924        21.30660         0.66652
H         29.02734        52.02249        -0.31062
H         33.15949        19.23998        -0.29254
H         30.96874        20.35120        -0.37783
H         32.81775        54.20976         0.40245
H         30.70097        53.03984         0.26991
H         34.60950        18.31091         0.76527
H         34.42573        54.91949         1.26150
H         36.67245        17.15349         1.33727
H         36.53739        55.98758         1.85051
H         40.42607        15.07572         2.13510
H         38.29266        16.22650         1.72972
H         40.36805        57.80672         2.94558
H         38.21012        56.70322         2.50451
H         42.88124        15.12024         2.36021
H         42.80201        57.95017         2.67196
H         45.00378        16.33182         2.19162
H         44.91005        57.02715         1.95586
H         48.64892        18.30426         1.18208
H         46.63692        17.31209         2.11114
H         48.53214        54.64721         2.22589
H         46.53951        55.99876         1.85337
H         50.34680        19.16888         0.59107
H         50.07250        53.55202         2.58781
H         52.36286        20.47224         0.83295
H         52.07571        52.17341         2.84742
H         56.05180        22.65493         0.99752
H         53.95100        21.44417         1.02472
H         55.75882        50.05605         2.75481
H         53.60202        50.89101         3.38089
H         57.62032        23.48299         0.09250
H         57.43091        49.15334         2.45903
H         59.68760        24.68044        -0.51636
H         60.86848        26.80593        -0.97746
H         60.89171        29.25333        -1.14089
H         61.02423        31.13237        -0.92907
H         61.03164        33.53522        -1.32959
H         61.03984        35.42137        -0.83714
H         61.03400        37.85948        -0.84047
H         61.04599        39.72709        -0.89385
H         60.99291        42.04700        -0.23836
H         60.84088        43.54767         0.95909
H         60.73024        45.75335         2.05190
H         59.49091        47.80733         2.57615
