         640
 CSIRO Nanostructure Databank - Neutral Graphene Oxide Data Set
C         23.17672        27.48501        -2.29781
C         23.20889        28.83135        -2.21550
C         23.14975        31.74240        -1.80505
C         23.14858        33.09960        -1.63776
C         23.11084        36.01404        -1.30879
C         23.11173        37.38108        -1.16528
C         23.05965        40.29373        -0.67044
C         23.05237        41.65739        -0.47559
C         23.04171        44.58864        -0.11957
C         23.04431        45.95763         0.01677
C         25.55589        24.63073        -2.15028
C         24.37002        25.27608        -2.18305
C         25.51159        27.38163        -1.44294
C         24.20395        26.64284        -1.58762
C         25.48130        28.77250        -1.22094
C         24.28854        29.54426        -1.54461
C         25.32240        31.62202        -0.61857
C         24.25195        30.93180        -1.37839
C         25.44429        33.09508        -0.68700
C         24.29489        33.82975        -1.16086
C         25.60402        35.96774        -1.08932
C         24.29046        35.23668        -1.13385
C         25.50379        37.40224        -0.62567
C         24.29522        38.10830        -0.78044
C         25.45448        40.21516        -0.20264
C         24.25473        39.53005        -0.54970
C         25.44708        41.64570        -0.03424
C         24.24200        42.37739        -0.16609
C         25.45036        44.50177         0.27857
C         24.24053        43.82180         0.00116
C         25.46122        45.93090         0.43645
C         24.24969        46.66339         0.29578
C         25.45912        48.73877         0.70732
C         24.27818        48.07577         0.44775
C         28.04082        23.11558        -1.66148
C         27.98218        24.53679        -1.51606
C         26.76657        25.26044        -1.65905
C         27.95124        27.35936        -1.08010
C         26.73587        26.66315        -1.37679
C         27.91118        28.75794        -0.79169
C         26.67452        29.43351        -0.80272
C         27.81410        31.50126         0.15467
C         26.56817        30.80049        -0.27235
C         27.79966        33.06056         0.25034
C         26.61482        33.77413        -0.28605
C         27.91816        35.87842        -0.17853
C         26.72657        35.19075        -0.44615
C         27.94029        37.32795        -0.11669
C         26.68812        38.07296        -0.21837
C         27.86256        40.17817         0.42528
C         26.64961        39.46671        -0.00338
C         27.90046        41.64383         0.33615
C         26.67954        42.34835         0.21231
C         27.90806        44.42749         0.61188
C         26.68475        43.76339         0.35771
C         27.88314        45.84670         0.98765
C         26.66139        46.63011         0.75148
C         27.96107        48.74568         1.03020
C         26.68844        48.03464         0.86119
C         28.01408        50.16068         1.12444
C         30.43009        23.08184        -1.14598
C         29.20833        22.41869        -1.46439
C         30.42077        24.50064        -1.04757
C         29.19409        25.22982        -1.19182
C         30.40358        27.34309        -0.74356
C         29.18114        26.64015        -1.00921
C         30.39724        28.74466        -0.52031
C         29.13607        29.47299        -0.47528
C         30.32552        31.50794         0.31171
C         29.08903        30.80550        -0.06958
C         30.31639        33.00907         0.57390
C         29.08972        33.77274         0.27509
C         30.40591        35.87607         0.12478
C         29.14280        35.15066         0.08378
C         30.41101        37.29768         0.03450
C         29.15029        37.99256         0.05705
C         30.41610        40.19130         0.19760
C         29.18313        39.42575         0.39331
C         30.38592        41.60608         0.27592
C         29.13356        42.32121         0.42614
C         30.39710        44.46241         0.55998
C         29.14279        43.74158         0.55792
C         30.43829        45.85784         0.73668
C         29.20739        46.58205         1.08929
C         30.43745        48.72826         1.02301
C         29.18997        48.04958         1.01074
C         30.45772        50.13959         1.18958
C         29.21842        50.82857         1.23328
C         32.88591        20.22948        -0.68054
C         31.70028        20.93043        -0.88906
C         32.84964        23.07664        -0.65563
C         31.65382        22.35818        -0.89214
C         32.86613        24.49037        -0.67539
C         31.64246        25.20777        -0.81973
C         32.87766        27.32967        -0.58404
C         31.64075        26.63006        -0.70827
C         32.87239        28.75013        -0.43350
C         31.63246        29.41687        -0.34269
C         32.88557        31.62056        -0.08358
C         31.59808        30.88447        -0.17376
C         32.92215        33.02302         0.41881
C         31.62835        33.76079         0.59148
C         32.86740        35.89108         0.13972
C         31.63435        35.20456         0.28858
C         32.86867        37.30699        -0.05706
C         31.63230        38.01498        -0.01115
C         32.82657        40.17278        -0.22423
C         31.64335        39.47565        -0.03530
C         32.78604        41.65586        -0.46143
C         31.57667        42.35094         0.09189
C         32.83739        44.48418         0.11388
C         31.60884        43.75813         0.24693
C         32.87170        45.88324         0.34288
C         31.65776        46.58193         0.63362
C         32.91197        48.68224         0.93030
C         31.67555        47.99802         0.87069
C         32.94365        50.08377         1.25877
C         31.72245        50.81263         1.36857
C         32.97669        52.81904         1.93849
C         31.77664        52.19315         1.68608
C         35.25419        18.90211         0.44093
C         35.34256        20.17486        -0.24156
C         34.10456        20.88121        -0.44400
C         35.36658        23.07807        -0.51059
C         34.08483        22.36263        -0.17698
C         35.37308        24.47382        -0.58956
C         34.11212        25.21176        -0.59514
C         35.39052        27.35579        -0.88347
C         34.11099        26.60260        -0.61162
C         35.37049        28.78080        -0.39899
C         34.13962        29.46914        -0.31302
C         35.36311        31.59425        -0.04017
C         34.15847        30.87516        -0.11460
C         35.36376        33.04910         0.00665
C         34.15750        33.76866         0.12008
C         35.34928        35.88651        -0.07601
C         34.12426        35.17915         0.09447
C         35.33245        37.32517        -0.20129
C         34.10541        38.00085        -0.24930
C         35.33790        40.16756        -0.16752
C         34.09273        39.46199        -0.61255
C         35.35191        41.64812         0.11437
C         34.06159        42.37910        -0.13257
C         35.34314        44.49120        -0.20129
C         34.07719        43.75653        -0.07423
C         35.34089        45.93119        -0.01527
C         34.12163        46.59936         0.33630
C         35.38935        48.66671         0.79029
C         34.14037        47.97955         0.67623
C         35.43053        50.02201         1.26618
C         34.19030        50.73757         1.48694
C         35.44672        52.77549         2.16649
C         34.20865        52.11315         1.87230
C         35.52126        54.10339         2.58550
C         37.63309        18.48751         0.82627
C         36.25445        18.23779         1.12263
C         37.81597        20.22268        -0.50872
C         36.55479        20.88781        -0.49191
C         37.81033        23.02824        -0.68384
C         36.58004        22.33853        -0.59934
C         37.84526        24.44312        -0.56912
C         36.61880        25.17750        -0.57851
C         37.84150        27.28724        -0.30737
C         36.64662        26.60269        -0.52669
C         37.84595        28.74322        -0.20431
C         36.59550        29.46681        -0.24326
C         37.83272        31.59769        -0.00754
C         36.60360        30.88915        -0.08395
C         37.85407        33.04479        -0.01154
C         36.58562        33.76773        -0.07054
C         37.86593        35.88782        -0.41174
C         36.56571        35.17340        -0.13144
C         37.82311        37.37551        -0.15593
C         36.58328        38.04901        -0.21494
C         37.80556        40.22119        -0.09502
C         36.54570        39.48763        -0.13894
C         37.79813        41.61011        -0.28590
C         36.49656        42.29529        -0.65165
C         37.73892        44.48487        -0.90342
C         36.50572        43.80159        -0.50004
C         37.75366        46.07493        -0.67755
C         36.54732        46.66474        -0.07427
C         37.85109        48.68385         0.60176
C         36.59988        48.00130         0.44297
C         37.88956        50.01513         1.12118
C         36.66844        50.66253         1.45710
C         37.90456        52.85065         1.71065
C         36.73635        51.98472         2.18516
C         37.97601        54.14314         2.50776
C         36.74990        54.73823         2.84437
C         39.79433        17.66876         3.71081
C         38.67021        17.99198         2.98876
C         40.06512        19.01884         1.15788
C         38.75223        18.52804         1.66064
C         40.21332        20.12752         0.09179
C         39.03932        20.85670        -0.40879
C         40.33873        23.03268        -0.56023
C         39.09452        22.27643        -0.93561
C         40.33375        24.41231        -0.39244
C         39.08921        25.14596        -0.42514
C         40.30834        27.24855        -0.01007
C         39.08866        26.55710        -0.22823
C         40.28793        28.69711         0.39823
C         39.03367        29.43521         0.00714
C         40.29064        31.56707         0.14664
C         39.05964        30.87285         0.06574
C         40.32602        33.03825         0.43977
C         39.04063        33.73818         0.11334
C         40.32634        35.91797        -0.02678
C         39.02698        35.23042         0.32932
C         40.30951        37.34047        -0.06335
C         39.04489        38.06643        -0.01788
C         40.26028        40.23122        -0.07233
C         39.04750        39.51129        -0.01669
C         40.25959        41.62774        -0.30246
C         39.00952        42.32201        -0.41586
C         40.21823        44.23095        -1.22314
C         38.99218        43.68832        -0.85365
C         40.23364        46.32463        -1.00262
C         39.02568        46.80022        -0.48024
C         40.32707        48.70370         0.36111
C         39.06806        48.03418         0.22784
C         40.36879        50.03962         0.91917
C         39.15174        50.69095         1.28083
C         40.39654        52.72309         1.91874
C         39.19848        52.06821         1.70340
C         40.43828        54.11658         2.30947
C         39.21957        54.77698         2.70754
C         40.48620        56.76041         3.37013
C         39.33771        56.04962         3.39638
C         42.24508        17.50333         3.83454
C         41.09943        18.00980         3.24459
C         42.58725        19.26251         1.58543
C         41.20111        19.07166         2.18179
C         42.73714        20.27345         0.62770
C         41.54206        20.82843        -0.05097
C         42.91882        23.01370        -0.59617
C         41.59464        22.26151        -0.54626
C         42.81086        24.46626        -0.21424
C         41.58470        25.13757        -0.20877
C         42.78317        27.29521        -0.01115
C         41.55523        26.56847        -0.04431
C         42.76216        28.74807        -0.04716
C         41.54297        29.44432         0.03082
C         42.72868        31.59126        -0.25176
C         41.52509        30.86375         0.00715
C         42.71790        33.04399        -0.34031
C         41.55227        33.75577        -0.08200
C         42.75034        35.90852        -0.42681
C         41.52995        35.19687        -0.16810
C         42.74732        37.34570        -0.40333
C         41.52964        38.04351        -0.16594
C         42.76523        40.22873        -0.36186
C         41.56091        39.51095         0.18244
C         42.74622        41.63215        -0.47563
C         41.49762        42.34648        -0.46750
C         42.70188        44.52038        -0.83346
C         41.48708        43.70857        -0.83997
C         42.71712        45.95220        -0.72279
C         41.51158        46.76329        -0.58043
C         42.79066        48.84717        -0.14713
C         41.52610        48.05747        -0.00502
C         42.83265        50.09252         0.69571
C         41.61362        50.69400         1.09202
C         42.90237        52.79296         1.60729
C         41.68992        51.95168         1.91726
C         42.89255        54.18140         1.94522
C         41.65756        54.80697         2.34662
C         42.97045        56.85419         2.93477
C         41.63710        56.30532         2.52143
C         43.52841        17.83361         3.34844
C         45.08118        18.97763         1.76455
C         43.71453        18.66828         2.24548
C         45.22369        20.27012         0.88526
C         43.99499        20.96562         0.48041
C         45.29619        23.03469         0.19259
C         44.06799        22.30692         0.09717
C         45.28516        24.46924        -0.02552
C         44.04017        25.17255        -0.12426
C         45.25922        27.30386        -0.22155
C         44.02454        26.60157        -0.08911
C         45.28310        28.79371        -0.01426
C         43.96294        29.48107        -0.23547
C         45.13123        31.57086        -1.00265
C         43.93041        30.87252        -0.41634
C         45.15277        33.05872        -0.81003
C         43.95742        33.75424        -0.62046
C         45.18333        35.89308        -0.88948
C         43.96567        35.19567        -0.63281
C         45.17389        37.34592        -0.95837
C         43.95605        38.06152        -0.66258
C         45.11936        40.22709        -0.99486
C         43.94345        39.50521        -0.67802
C         45.15796        41.62904        -0.89570
C         43.94655        42.36182        -0.72172
C         45.19079        44.48598        -0.77184
C         43.93801        43.79388        -0.77512
C         45.20540        45.89936        -0.58880
C         43.97632        46.62124        -0.48922
C         45.25772        48.63418         0.11274
C         44.03426        47.99800        -0.10926
C         45.34700        49.99355         0.78182
C         44.05146        50.74403         0.87492
C         45.31735        52.87308         1.08958
C         44.09484        52.14751         1.21261
C         45.28906        54.38026         1.19295
C         44.09245        54.92734         1.93450
C         44.11402        56.22551         2.54234
C         47.47694        19.19534         2.30064
C         46.26929        18.60333         2.52910
C         47.61826        20.40999         1.54310
C         46.48090        21.01798         0.98404
C         47.72641        23.13859         0.69783
C         46.49509        22.39627         0.59806
C         47.74969        24.54842         0.30349
C         46.49449        25.19533        -0.03878
C         47.73518        27.29820        -0.60670
C         46.46363        26.60379        -0.29357
C         47.76608        28.80030        -0.88316
C         46.45143        29.51375        -0.62216
C         47.68868        31.62266        -0.80423
C         46.43475        30.87132        -0.71557
C         47.62250        33.04811        -0.99010
C         46.39666        33.74445        -0.97527
C         47.62543        35.87225        -1.36640
C         46.40298        35.18590        -1.05404
C         47.53927        37.28839        -1.75491
C         46.32113        38.02411        -1.36086
C         47.62456        40.11859        -1.07645
C         46.30882        39.51309        -1.58511
C         47.61299        41.63449        -1.16934
C         46.41718        42.33958        -1.01183
C         47.65831        44.47735        -0.85566
C         46.42384        43.77454        -0.88996
C         47.68839        45.87734        -0.63346
C         46.45284        46.58892        -0.48417
C         47.73956        48.68026        -0.08299
C         46.47620        47.96677        -0.16314
C         47.76089        50.03333         0.21208
C         46.47179        50.82395         0.16384
C         47.75133        52.92039         0.81341
C         46.53426        52.22851         0.73941
C         47.76960        54.26409         1.33044
C         46.62428        54.94877         1.58275
C         50.08277        20.52832         1.91199
C         48.87560        21.13631         1.56287
C         50.09851        23.36346         1.49346
C         48.88063        22.51754         1.16692
C         50.24262        24.53373         0.52084
C         48.93300        25.26031         0.34238
C         50.23388        27.44785         0.04518
C         49.01357        26.62848        -0.19548
C         50.19629        28.82502        -0.07433
C         48.85257        29.52818        -0.08135
C         50.18472        31.61232        -0.90702
C         48.88360        30.96957        -0.53852
C         50.15641        33.10693        -0.67391
C         48.86455        33.83166        -0.85282
C         50.12970        35.90030        -1.56616
C         48.87658        35.24355        -1.28937
C         50.15246        37.28857        -1.98435
C         48.83236        38.02500        -2.09506
C         49.69199        40.34703        -2.39342
C         48.76581        39.50111        -1.86402
C         49.93329        41.68182        -1.92069
C         48.83953        42.34312        -1.35312
C         50.10816        44.43173        -1.16639
C         48.90094        43.77137        -1.10574
C         50.22521        45.80868        -0.57265
C         48.93065        46.57814        -0.55528
C         50.22525        48.67550        -0.41292
C         48.97245        47.95162        -0.31651
C         50.25629        50.07050        -0.17154
C         49.04995        50.71847         0.38279
C         50.23255        52.93937         0.12048
C         49.05113        52.21822         0.61433
C         51.32343        21.23073         1.84028
C         52.69784        23.30508         1.35986
C         51.38525        22.57562         1.60376
C         52.54222        24.81631         1.64636
C         51.40625        25.43470         0.86852
C         52.63975        27.56676         0.68295
C         51.43313        26.77440         0.51539
C         52.63613        28.94627         0.37841
C         51.40932        29.60917         0.01758
C         52.61894        31.74247        -0.28167
C         51.41736        30.97502        -0.30854
C         52.63090        33.12966        -0.65749
C         51.41116        33.83300        -0.93029
C         52.67255        35.79282        -1.63512
C         51.36281        35.16726        -1.36246
C         52.69150        37.26027        -1.99531
C         51.39289        37.94611        -2.16047
C         52.64864        40.11338        -2.26625
C         51.57006        39.29727        -2.59996
C         52.57186        41.59715        -2.35172
C         51.23129        42.34748        -2.13049
C         52.48735        44.54530        -2.08723
C         51.39891        43.68695        -1.40706
C         52.55984        45.94720        -1.50980
C         51.41442        46.59799        -1.06760
C         52.60866        48.76209        -1.05244
C         51.41633        48.00976        -0.83139
C         52.61404        50.17641        -0.85068
C         51.42024        50.83593        -0.40351
C         51.34580        52.27853        -0.29351
C         54.92668        23.54941         2.42784
C         53.85601        22.77586         2.17408
C         55.01155        24.93399         1.96173
C         53.85354        25.55644         1.49702
C         55.07507        27.65017         1.07873
C         53.85894        26.92496         1.08393
C         55.08267        29.04616         0.72459
C         53.85157        29.70431         0.41808
C         55.07086        31.82538         0.11365
C         53.84674        31.09369         0.09350
C         55.08388        33.21122        -0.24512
C         53.87037        33.85277        -0.64508
C         55.09425        35.96233        -1.02326
C         53.89802        35.20900        -1.05734
C         55.11410        37.36897        -1.38163
C         53.90787        38.05103        -1.74307
C         55.06672        40.23688        -1.78906
C         53.87451        39.47290        -1.85468
C         55.04960        41.65753        -1.90009
C         53.81658        42.37228        -2.05523
C         55.01710        44.51348        -1.92669
C         53.80321        43.77916        -2.01499
C         55.00611        45.95556        -1.86048
C         53.79004        46.66456        -1.63724
C         55.01832        48.81300        -1.60672
C         53.80847        48.08031        -1.43073
C         54.98316        50.22736        -1.44260
C         53.83002        50.88267        -1.07742
C         57.45973        25.07069         2.46316
C         56.25335        25.65709         1.98741
C         57.50779        27.71749         1.50564
C         56.28447        27.00454         1.51300
C         57.60141        29.03636         0.78734
C         56.29418        29.77600         0.70173
C         57.52847        31.91191         0.47893
C         56.29621        31.16107         0.43302
C         57.52454        33.29663         0.15281
C         56.30156        33.94665        -0.24027
C         57.52730        36.07352        -0.56923
C         56.30651        35.32875        -0.60138
C         57.53577        37.45864        -0.93640
C         56.32387        38.09369        -1.32412
C         57.57214        40.29182        -1.51171
C         56.36766        39.48558        -1.90859
C         57.53691        41.70410        -1.64958
C         56.28086        42.39436        -1.84088
C         57.49794        44.54961        -1.88866
C         56.26216        43.81062        -1.88941
C         57.47611        45.97379        -1.98346
C         56.23339        46.68265        -1.92261
C         57.48073        48.79818        -2.03461
C         56.23983        48.10822        -1.87667
C         58.63408        25.78865         2.50218
C         59.88561        27.89827         2.10318
C         58.68103        27.12687         2.02081
C         59.89771        29.24246         1.76565
C         58.76360        29.88783         1.22752
C         59.91460        32.07567         1.02403
C         58.74180        31.28070         0.91131
C         59.91467        33.40612         0.66789
C         58.73602        34.04572         0.20898
C         59.94325        36.17680        -0.22504
C         58.74431        35.43458        -0.18500
C         59.94904        37.51891        -0.58062
C         58.76310        38.19384        -0.91165
C         59.94529        40.40013        -1.00530
C         58.76381        39.63280        -1.16431
C         59.94401        41.76039        -1.23705
C         58.74854        42.44514        -1.55732
C         59.94646        44.61898        -1.88122
C         58.73970        43.87503        -1.77938
C         59.92890        45.98734        -2.04699
C         58.69915        46.69443        -2.06462
C         58.66833        48.11817        -2.13983
O         49.46359        33.57673         0.52016
O         25.49582        30.99253         0.69882
O         28.52275        46.08395         2.29521
O         37.81916        18.81929        -0.52341
O         28.47838        39.69031         1.66804
O         37.56575        45.44829        -1.97784
O         49.30283        51.28782         1.73038
O         41.68646        21.13174        -1.49414
O         27.63085        32.19200         1.41529
O         50.55237        39.85140        -3.37104
O         32.13980        31.57357        -1.37271
O         45.29555        18.92511         0.32907
O         52.87583        36.21436        -3.03151
O         48.55093        26.60971        -1.62767
O         32.43031        33.34361         1.75589
O         40.21066        45.37425        -2.02791
O         30.27352        32.03868         1.66830
O         47.95007        37.55198        -3.17669
O         40.38991        18.69809        -0.20838
O         51.80849        42.18727        -3.46361
O         23.69037        26.43321        -0.22116
H         23.64117        27.31487         0.20697
O         51.93303        43.35639        -0.07571
H         51.23342        42.87307         0.41366
O         37.62115        53.21615         0.33197
H         38.35207        53.78557         0.01283
O         40.93424        20.34541         2.88991
H         41.45641        20.33987         3.72043
O         47.74433        39.75497         0.33018
H         48.46203        40.29130         0.72583
O         49.79797        23.94870         2.79890
H         50.04845        23.29739         3.48666
O         46.13733        50.97947        -1.24714
H         46.88273        51.42835        -1.69693
O         39.18759        22.10999        -2.40076
H         40.02467        21.61266        -2.56297
O         42.72830        49.36594        -1.53118
H         42.70671        48.59243        -2.13451
O         46.22309        39.72754        -3.02132
H         46.80024        39.04849        -3.45338
O         40.26881        28.67176         1.88556
H         40.48609        29.57843         2.19118
O         52.13773        44.78076        -3.46933
H         52.10446        43.90254        -3.92316
O         36.26857        42.01452        -2.06745
H         36.84019        42.61538        -2.59190
O         26.01302        36.06789        -2.52028
H         25.29879        36.55434        -2.98580
O         40.44214        33.15423         1.94019
H         39.74361        32.57664         2.31901
O         45.06435        54.84885        -0.21612
H         45.73560        54.39867        -0.77330
O         48.39401        29.50721         1.31492
H         48.91229        30.17233         1.81640
O         45.53177        28.93828         1.44404
H         46.50383        29.07488         1.57166
O         35.44144        27.46566        -2.35956
H         34.66304        27.99320        -2.64013
O         38.82304        35.43647         1.75504
H         39.50556        34.88940         2.21354
O         52.20300        24.90995         3.06915
H         51.94824        25.83776         3.25529
O         34.15568        39.53022        -2.12880
H         35.01138        39.95854        -2.36328
O         41.38912        56.86022         1.16549
H         42.14741        56.58339         0.60611
O         50.53703        45.56974         0.85797
H         51.36681        45.03600         0.87388
O         57.92330        28.67797        -0.62507
H         58.75686        28.16026        -0.60315
O         50.30108        31.45034        -2.36392
H         49.84709        30.61389        -2.61159
O         50.53803        23.95176        -0.79966
H         50.36323        24.64121        -1.47673
O         32.64143        41.79758        -1.94190
H         33.14208        41.03584        -2.33765
O         53.03964        23.10832        -0.03321
H         52.22689        23.29902        -0.56711
O         34.00177        22.43806         1.31265
H         33.13994        22.04536         1.57031
O         41.72671        39.54254         1.65742
H         42.55033        39.05269         1.86774
O         44.97224        31.41475        -2.46470
H         45.17229        30.48121        -2.69199
O         37.00942        51.65854         3.58452
H         36.24844        51.14455         3.92711
O         45.75815        49.74714         2.15780
H         45.00708        49.34184         2.63912
O         41.88346        51.49609         3.32154
H         41.03725        51.09047         3.60944
O         48.06452        29.00148        -2.28601
H         48.41629        28.14159        -2.62369
O         38.14696        35.71212        -1.83278
H         37.40358        36.10124        -2.33921
O         35.66466        41.82563         1.53177
H         34.98793        41.34971         2.05682
O         43.31235        23.05257        -2.00438
H         43.13059        22.15439        -2.36602
O         56.53646        39.27169        -3.37125
H         55.77504        38.73000        -3.67326
H         22.33816        26.98012        -2.80049
H         22.40063        29.41209        -2.68152
H         22.27037        31.26998        -2.26247
H         22.26717        33.66099        -1.97481
H         22.15126        35.51395        -1.50043
H         22.16340        37.91947        -1.28970
H         22.11260        39.79675        -0.91906
H         22.09900        42.19239        -0.57788
H         22.08952        44.08412        -0.33070
H         22.10693        46.52313        -0.08668
H         25.61739        23.60812        -2.54911
H         23.47536        24.77316        -2.57976
H         25.43856        49.83301         0.79690
H         23.34160        48.64263         0.34461
H         27.12762        22.55545        -1.90256
H         27.08700        50.74846         1.14560
H         29.19032        21.32523        -1.56483
H         29.19985        51.92107         1.34097
H         32.86755        19.13427        -0.78076
H         30.78863        20.35519        -1.09609
H         32.96905        53.88494         2.19990
H         30.85167        52.77937         1.75991
H         34.22728        18.58549         0.68343
H         34.60516        54.68956         2.74373
H         35.97037        17.51127         1.89923
H         36.72789        55.74855         3.27663
H         39.69976        17.09271         4.64284
H         37.68183        17.68753         3.36264
H         40.56340        57.72356         3.89619
H         38.47566        56.42842         3.96404
H         42.15571        16.79661         4.67217
H         43.01391        57.84755         3.40509
H         44.39634        17.37720         3.84180
H         45.08029        56.71629         2.72690
H         48.34839        18.82983         2.86200
H         46.19766        17.82234         3.29881
H         48.74261        54.72548         1.55404
H         46.68804        55.97977         1.95628
H         50.11212        19.45783         2.15548
H         50.19613        54.03711         0.05995
H         52.24645        20.64345         1.95273
H         52.20414        52.87503        -0.63209
H         55.77285        23.12568         2.98705
H         53.85239        21.72653         2.50373
H         55.89657        50.81911        -1.58762
H         53.86686        51.97137        -0.93951
H         57.46174        24.03224         2.81927
H         57.49573        49.89575        -2.06015
H         59.55244        25.32931         2.89528
H         60.78808        27.43017         2.52105
H         60.81463        29.81594         1.96078
H         60.85412        31.62446         1.36847
H         60.85350        33.96843         0.75082
H         60.90060        35.70263         0.02554
H         60.91146        38.04612        -0.59086
H         60.88903        39.91881        -0.71894
H         60.88659        42.31343        -1.13294
H         60.91444        44.10198        -1.84566
H         60.87124        46.54708        -2.13358
H         59.61494        48.66766        -2.24462
