         314
 CSIRO Nanostructure Databank - Neutral Graphene Oxide Data Set
C         30.39709        56.88993        -1.51394
C         30.11190        58.26768        -1.19427
C         29.64523        59.29245        -1.96911
C         30.53267        61.31819        -0.70368
C         29.72639        60.69523        -1.60222
C         33.08730        52.87789        -0.97484
C         33.00646        54.29385        -0.95112
C         31.79870        54.95125        -1.24936
C         32.90828        57.22593        -1.11673
C         31.63930        56.35499        -1.16914
C         32.83596        58.64349        -0.52001
C         31.74431        59.26974        -0.02420
C         32.87768        61.48520         0.14000
C         31.57815        60.73738         0.24796
C         35.51368        48.63776        -0.32256
C         35.40753        50.01448        -0.16859
C         34.27080        50.74796        -0.61302
C         35.47159        52.89768        -0.26435
C         34.23774        52.14863        -0.61302
C         35.39381        54.38939        -0.20323
C         34.14319        55.09850        -0.55204
C         35.33312        57.21400        -0.19483
C         34.12826        56.48184        -0.56268
C         35.38534        58.68596        -0.37850
C         34.08793        59.44055        -0.58117
C         35.31722        61.56759        -0.09091
C         34.06229        60.87374        -0.18429
C         38.11087        44.44238        -0.40909
C         38.04559        45.83849        -0.17543
C         36.82363        46.54209        -0.33771
C         37.88813        48.59277         0.43413
C         36.72402        47.91063        -0.04508
C         37.78991        49.98863         0.86644
C         36.48656        50.74705         0.53586
C         37.71978        52.87830         0.84468
C         36.57998        52.20084         0.43153
C         37.65004        54.36037         1.03352
C         36.38746        55.12634         0.63093
C         37.56784        57.35006         0.91180
C         36.40624        56.58753         0.42808
C         37.67088        58.77554         0.56055
C         36.55462        59.44825         0.09114
C         37.75207        61.59184         0.34657
C         36.53641        60.89344         0.05468
C         40.33007        40.09218         0.22144
C         40.40338        41.50426         0.04827
C         39.30101        42.28379        -0.30217
C         40.50791        44.43647         0.05761
C         39.31497        43.72115        -0.26354
C         40.46587        45.82924         0.37575
C         39.21896        46.54286         0.24975
C         40.28678        48.67978         1.00616
C         39.13190        47.93952         0.53170
C         40.25126        50.05318         1.21574
C         39.01750        50.77426         1.05149
C         40.20583        52.91885         1.23896
C         38.95439        52.17427         1.11763
C         40.14114        54.40616         1.27658
C         38.88619        55.11918         1.15351
C         40.15363        57.32256         0.95121
C         38.90225        56.57695         1.23942
C         40.11235        58.74045         0.80484
C         38.91570        59.46466         0.72378
C         40.17522        61.59331         0.89310
C         38.93848        60.91346         0.62156
C         42.83481        35.90562         0.34109
C         42.84679        37.25779         0.73747
C         41.60267        37.97963         0.71232
C         42.47790        40.21636         1.31952
C         41.42863        39.38490         0.76165
C         42.79440        41.47043         0.89552
C         41.72670        42.17780         0.15971
C         42.99162        44.39318         0.63876
C         41.77015        43.69390         0.12819
C         42.92527        45.85661         0.92265
C         41.61544        46.52004         0.83377
C         42.82067        48.65911         1.61597
C         41.49880        47.89445         1.31586
C         42.77355        50.11969         1.44180
C         41.45431        50.81657         1.75741
C         42.70490        53.08577         1.45382
C         41.41334        52.28102         1.35918
C         42.56339        54.33906         0.51321
C         41.42483        55.19799         1.03166
C         42.59093        57.30186         0.42658
C         41.34636        56.62544         0.69811
C         42.62494        58.72096         0.56650
C         41.35669        59.48095         0.43106
C         42.63642        61.53064         1.14354
C         41.38988        60.90769         0.89904
C         45.16831        33.15023        -0.69871
C         43.99047        33.81937        -0.34960
C         45.28580        35.85491         0.04526
C         44.02276        35.18288         0.03406
C         45.34309        37.21618         0.44333
C         44.15891        37.87060         0.90721
C         45.44466        39.97133         1.23396
C         44.33476        39.13987         1.48360
C         45.38024        41.41412         1.33258
C         44.05932        42.13048         1.37190
C         45.40949        44.33628         1.26796
C         44.10851        43.62956         1.30106
C         45.39794        45.75987         1.31151
C         44.10025        46.45673         1.75761
C         45.23753        48.63444         1.13469
C         44.10694        47.95303         1.46594
C         45.17139        50.06109         0.83347
C         43.92476        50.78527         1.11870
C         45.03692        52.93341         0.30481
C         43.94837        52.26992         1.08098
C         44.91594        54.32334        -0.21141
C         43.82105        55.12508         0.14300
C         44.97976        57.38444        -0.00333
C         43.78560        56.57657         0.12417
C         45.05244        58.72204         0.48097
C         43.83346        59.41840         0.70845
C         45.12052        61.46968         1.15242
C         43.86188        60.83833         1.01236
C         46.40050        33.79883        -0.68723
C         47.72363        35.86243        -0.28146
C         46.49044        35.16986        -0.31605
C         47.79496        37.22776         0.09007
C         46.58512        37.91239         0.45312
C         47.85980        39.99485         0.78286
C         46.63481        39.30060         0.78241
C         47.85371        41.41062         1.17478
C         46.56637        42.14848         1.21550
C         47.82680        44.31999         0.92211
C         46.60507        43.59936         1.16890
C         47.79054        45.75164         0.79465
C         46.57440        46.46733         1.08634
C         47.70274        48.66941         0.51158
C         46.59428        47.97430         1.31047
C         47.37786        49.86905        -0.36988
C         46.22950        50.68133         0.20273
C         47.37548        52.78694        -0.68058
C         46.11752        52.07175        -0.26776
C         47.35493        54.25512        -0.75633
C         46.08663        54.80526        -0.88262
C         47.43554        57.40821        -0.37581
C         46.14964        56.91908        -0.63570
C         47.50053        58.71546         0.17902
C         46.31205        59.39849         0.50699
C         47.59273        61.43665         1.05812
C         46.33927        60.79753         0.90753
C         49.01644        37.94633         0.09666
C         50.28730        40.05926         0.31067
C         49.06977        39.32049         0.42681
C         50.33321        41.45282         0.44296
C         49.15306        42.18691         0.96139
C         50.20774        44.31935         0.27429
C         49.06347        43.64048         0.72226
C         50.14100        45.72681         0.00223
C         48.95080        46.43070         0.33247
C         49.84781        48.48671        -0.89672
C         48.90759        47.89176         0.11132
C         49.85540        49.97847        -0.96040
C         48.64986        50.65504        -0.67082
C         49.84437        52.77956        -0.86041
C         48.64589        52.05412        -0.73683
C         49.82097        54.20613        -0.44131
C         48.60903        55.04670        -0.78956
C         49.88172        57.16523         0.04900
C         48.65494        56.58041        -0.61441
C         50.01395        58.64069         0.18720
C         48.78451        59.47553         0.04136
C         50.05705        61.37635         1.00032
C         48.81140        60.78844         0.76270
C         51.48176        42.19643         0.11678
C         52.60739        44.34356        -0.28114
C         51.45732        43.61500         0.05150
C         52.55140        45.73620        -0.59898
C         51.27307        46.38880        -0.55503
C         52.32048        48.46815        -1.63992
C         51.11189        47.72354        -1.15702
C         52.25370        49.97537        -1.72011
C         51.03788        50.69480        -1.24291
C         52.31041        52.87970        -1.04511
C         51.06854        52.10805        -1.05362
C         52.37436        54.17045        -0.52658
C         51.12322        54.84022        -0.06332
C         52.40306        56.99170         0.55126
C         51.09447        56.31827         0.28309
C         52.45097        58.45921         0.62040
C         51.22067        59.22540         0.52193
C         52.51323        61.26727         1.02101
C         51.27570        60.65519         0.82657
C         53.71595        46.44263        -0.94565
C         54.86938        48.66626        -1.43674
C         53.67439        47.80606        -1.48978
C         54.83763        50.02838        -1.61038
C         53.54567        50.74519        -1.82202
C         54.83446        52.96127        -1.46229
C         53.52503        52.23497        -1.59066
C         54.81419        54.30608        -0.86204
C         53.63880        54.89388        -0.44604
C         54.91086        57.04024         0.16259
C         53.69140        56.23542         0.21417
C         54.92956        58.37212         0.60282
C         53.68292        59.10330         0.75599
C         54.97369        61.19659         0.95076
C         53.73595        60.54240         0.91548
C         56.05336        50.79798        -1.47053
C         57.32705        52.87918        -1.16304
C         56.09891        52.17705        -1.38874
C         57.37890        54.24605        -0.91241
C         56.10875        55.01841        -0.86251
C         57.43427        56.93788         0.16521
C         56.14161        56.42728        -0.36426
C         57.44585        58.32085         0.73625
C         56.17398        59.08081         0.71937
C         57.45888        61.18309         0.79651
C         56.19781        60.48301         0.85344
C         58.60788        54.95695        -0.75864
C         59.86503        57.05264        -0.31485
C         58.67707        56.28550        -0.32328
C         59.90728        58.39976         0.08936
C         58.78007        59.04132         0.89459
C         59.88807        61.24505         0.44522
C         58.67148        60.53572         0.67027
C         61.05636        59.17903        -0.12539
C         61.05214        60.57025         0.10377
O         35.99353        53.73353        -1.38181
O         48.73760        59.86252        -1.49424
O         57.37908        57.12912         1.61998
O         40.97034        54.95591         2.38012
O         46.38522        52.22433        -1.69001
O         56.11984        56.17173        -1.80724
O         41.20892        59.68890        -1.13260
O         43.88842        46.17476         3.09366
O         36.56556        54.70170         2.00505
O         48.75243        41.74851         2.29401
O         36.75465        50.23219         1.87390
O         50.13979        56.55931         1.37083
O         49.98340        47.76796        -2.13985
O         53.13311        56.26411         1.58329
O         41.99574        48.12236         2.67327
O         43.30078        39.62579         2.28401
O         45.96762        55.96892        -1.63787
O         43.46767        45.36131        -0.35411
O         54.11715        52.93110        -2.74327
O         38.01507        57.11479         2.27276
O         45.11608        52.84407         1.78072
O         34.95572        59.15563        -1.72235
O         30.54013        58.57754         0.12263
O         43.79934        42.96384         2.56077
O         48.91775        48.77635         1.31256
O         52.76562        50.42919        -3.01487
O         50.30803        54.15476         0.94909
O         52.93888        47.86326        -2.79721
O         42.10085        42.88553        -1.06372
O         48.85472        55.96362        -1.91663
O         41.18804        58.38710        -1.74694
H         42.04061        58.36701        -2.24647
O         41.32730        50.83083         3.20847
H         41.87894        51.57121         3.54823
O         33.15651        57.40207        -2.54180
H         33.95719        57.97973        -2.62698
O         46.89694        49.32345        -1.62865
H         46.66582        50.09045        -2.20119
O         59.17972        58.90050         2.28796
H         58.84230        58.02293         2.58363
O         31.07526        60.91517         1.59936
H         30.30764        60.31103         1.69502
O         46.89231        48.15207         2.71675
H         47.87148        48.22699         2.80039
O         42.11536        53.76926        -0.75770
H         42.23945        54.43752        -1.46452
O         49.94596        60.55988        -1.80189
H         49.71289        61.50890        -1.65251
O         42.87419        53.45782         2.82698
H         43.83907        53.59056         2.97968
H         29.63250        56.23971        -1.96983
H         29.24967        59.06346        -2.96866
H         30.43453        62.41344        -0.62846
H         29.08186        61.35679        -2.20617
H         32.18590        52.31648        -1.26376
H         30.91068        54.34040        -1.47583
H         32.87636        62.54669         0.42993
H         34.68042        48.08834        -0.78581
H         33.39393        50.19178        -0.97722
H         35.29675        62.66026         0.03714
H         37.18965        43.90296        -0.67459
H         35.93947        45.99923        -0.70258
H         37.74604        62.69159         0.32725
H         39.42503        39.55562        -0.09982
H         38.33130        41.78912        -0.46402
H         40.15811        62.67924         1.07031
H         41.86705        35.39734         0.21119
H         40.73317        37.39312         0.37134
H         42.65177        62.59938         1.40583
H         45.11863        32.09120        -0.98905
H         43.02924        33.28624        -0.37122
H         45.15046        62.53604         1.42274
H         47.31464        33.25327        -0.96156
H         48.64662        35.33206        -0.55977
H         47.62272        62.45959         1.46381
H         49.94425        37.42972        -0.18981
H         51.19177        39.52828        -0.02143
H         50.10466        62.40020         1.40228
H         52.40507        41.66592        -0.15958
H         53.56537        43.81497        -0.39363
H         52.55460        62.34655         1.23126
H         54.69037        45.93792        -0.86868
H         55.83306        48.18129        -1.21645
H         55.00205        62.29100         1.05657
H         56.99366        50.23367        -1.37265
H         58.26280        52.29985        -1.16750
H         57.43266        62.28342         0.76153
H         59.54381        54.43373        -1.00753
H         60.77849        56.60544        -0.73822
H         59.87754        62.34477         0.47155
H         61.95192        58.70826        -0.55811
H         61.97064        61.14265        -0.08876
