         424
 CSIRO Nanostructure Databank - Neutral Graphene Oxide Data Set
C          1.52847         3.59807        -1.99439
C          0.44538         4.35226        -2.34409
C          1.49418         6.45397        -1.62162
C          0.40840         5.77059        -2.09958
C          1.43143         7.86283        -1.21354
C          0.26940         8.65042        -1.53143
C          1.19358        10.63018        -0.44766
C          0.18172         9.98401        -1.20944
C          1.16722        12.00675        -0.11613
C         -0.03895        12.75632        -0.27515
C          1.13534        14.84398         0.17374
C         -0.06357        14.11021        -0.09113
C          1.10832        16.27032         0.25770
C         -0.11373        17.00737         0.23384
C          1.08260        19.13149         0.32599
C         -0.13279        18.37815         0.27944
C          1.07549        20.55360         0.20762
C         -0.10082        21.35875         0.27906
C          1.05687        23.44541        -0.60373
C         -0.10619        22.69747         0.00935
C          1.14800        24.89142        -0.07424
C         -0.08022        25.69197        -0.43563
C          1.15102        27.79342        -0.11368
C         -0.05311        27.03929        -0.44210
C          1.12309        29.16601         0.09140
C         -0.07937        29.95566        -0.01689
C          1.19000        32.06144         0.16137
C         -0.05465        31.31642         0.05009
C          1.20281        33.50609         0.08424
C          0.02641        34.27033        -0.10022
C          1.27851        36.35449         0.02939
C          0.06959        35.65867        -0.15342
C          1.33678        37.80300        -0.07266
C          3.77829         3.49918        -0.99747
C          2.70748         4.22048        -1.44815
C          3.63469         6.25006        -0.32021
C          2.82371         5.73083        -1.51630
C          3.81247         7.78078        -0.38451
C          2.45470         8.44326        -0.46862
C          3.52710        10.54272         0.65012
C          2.29601         9.80610         0.04434
C          3.57651        11.99599         0.50517
C          2.37111        12.70068         0.27818
C          3.58992        14.85738         0.51504
C          2.36464        14.13985         0.32474
C          3.57991        16.27302         0.50961
C          2.33720        16.98796         0.38227
C          3.56418        19.12550         0.64110
C          2.30642        18.40464         0.41008
C          3.59100        20.61688         0.47103
C          2.35163        21.24508        -0.06841
C          3.64588        23.44782        -0.21020
C          2.38052        22.69618        -0.43768
C          3.66752        24.84608        -0.27895
C          2.40416        25.63102        -0.60480
C          3.60227        27.73667         0.12100
C          2.41610        27.06804        -0.08942
C          3.64509        29.16620         0.36469
C          2.34188        29.87713         0.62645
C          3.64257        32.04432         0.37656
C          2.38074        31.35732         0.32897
C          3.66857        33.46441         0.32294
C          2.44787        34.19361         0.21572
C          3.71524        36.30909         0.44158
C          2.47623        35.62134         0.24405
C          3.69033        37.79099         0.73485
C          2.46744        38.48418         0.19937
C          6.16830         3.41696        -0.37489
C          4.98610         4.14498        -0.50983
C          6.13063         6.21174         0.21015
C          4.96452         5.53784        -0.20277
C          6.11380         7.62941         0.51015
C          4.74661         8.25912         0.74328
C          6.09285        10.52772         0.86773
C          4.80117         9.77979         0.86995
C          6.06931        11.99368         0.65705
C          4.83837        12.69352         0.57334
C          6.07245        14.81351         0.70695
C          4.84527        14.12863         0.59710
C          6.08121        16.28167         1.05301
C          4.82012        17.01266         0.64134
C          6.08945        19.16893         0.93665
C          4.83020        18.38320         0.63526
C          6.07188        20.59558         0.39663
C          4.88294        21.29873         0.23177
C          6.09829        23.41893         0.02177
C          4.85963        22.71527        -0.01731
C          6.09400        24.84968         0.05896
C          4.89548        25.54298        -0.10853
C          6.15499        27.76659         0.10795
C          4.88354        27.02912        -0.12569
C          6.12235        29.13730         0.73581
C          4.83208        29.86895         0.46093
C          6.10836        32.01136         0.42812
C          4.86206        31.31608         0.46068
C          6.12337        33.43430         0.45059
C          4.92058        34.16023         0.41074
C          6.18505        36.31789         0.46475
C          4.92125        35.60702         0.47328
C          6.17441        37.77016         0.34339
C          4.97213        38.46983         0.36752
C          8.60808         3.37462        -0.02972
C          7.38578         4.07459        -0.05347
C          8.59317         6.15805         0.44760
C          7.37326         5.48697         0.20747
C          8.56450         7.58998         0.78601
C          7.30155         8.34661         0.66234
C          8.56533        10.50268         0.58625
C          7.36242         9.78374         0.71132
C          8.55270        11.96415         0.53787
C          7.30295        12.68488         0.61165
C          8.55379        14.82992         0.55738
C          7.30269        14.11529         0.62631
C          8.55602        16.26264         0.49747
C          7.34260        17.00429         0.63571
C          8.55462        19.10946         0.32150
C          7.34094        18.39535         0.57902
C          8.53875        20.51612         0.13109
C          7.31996        21.27196         0.16885
C          8.56609        23.42332        -0.25615
C          7.31678        22.67827         0.00919
C          8.60117        24.90040        -0.04499
C          7.36050        25.54345         0.52397
C          8.61453        27.72311         0.37129
C          7.41140        27.02453         0.31310
C          8.61130        29.16814         0.30833
C          7.38524        29.90075         0.39982
C          8.58416        32.01622        -0.17082
C          7.35377        31.28699         0.31914
C          8.65309        33.45838         0.24042
C          7.42032        34.14588         0.76307
C          8.63599        36.31242         0.31556
C          7.39473        35.62413         0.45699
C          8.63695        37.75394         0.21418
C          7.41452        38.45152         0.21685
C         11.06780         3.36349         0.03100
C          9.83411         4.05551         0.12359
C         11.07186         6.20122         0.30128
C          9.82524         5.47919         0.34143
C         11.10084         7.63028         0.38316
C          9.88092         8.36290         0.74544
C         11.03628        10.49591         0.32226
C          9.83035         9.81859         0.51983
C         11.03808        11.97898         0.03797
C          9.74987        12.68113         0.41235
C         11.03624        14.82265         0.36801
C          9.77080        14.10763         0.45273
C         11.03336        16.24541         0.30872
C          9.79211        16.96523         0.34168
C         11.04531        19.08748         0.20215
C          9.78635        18.38037         0.25482
C         11.05601        20.48549         0.16503
C          9.81588        21.19729        -0.11997
C         11.10323        23.42511         0.08388
C          9.86536        22.68926        -0.28495
C         11.06919        24.85436         0.26170
C          9.89163        25.58189         0.23705
C         11.09144        27.72839         0.51172
C          9.87896        27.01207         0.43119
C         11.09069        29.16315         0.40102
C          9.85816        29.87200         0.24510
C         11.09761        31.98030         0.04226
C          9.87569        31.28265         0.10468
C         11.10516        33.43278        -0.03281
C          9.84834        34.14232         0.15048
C         11.08451        36.29793         0.11127
C          9.86069        35.59783         0.23811
C         11.09164        37.74319         0.09352
C          9.86746        38.44161         0.13107
C         13.53962         3.35812        -0.03727
C         12.29051         4.06032        -0.02123
C         13.47919         6.24124        -0.27471
C         12.25954         5.49129         0.02075
C         13.52789         7.68467        -0.02685
C         12.29721         8.36840         0.21312
C         13.52617        10.52481         0.21354
C         12.27896         9.80310         0.27975
C         13.53967        11.93489         0.30387
C         12.25743        12.65107         0.66778
C         13.50773        14.81697         0.24373
C         12.27138        14.13067         0.36968
C         13.52036        16.23454         0.13841
C         12.27597        16.95708         0.20469
C         13.52017        19.10273        -0.23460
C         12.27279        18.36319         0.16985
C         13.56804        20.55190         0.17420
C         12.28784        21.24524         0.54842
C         13.55301        23.42232         0.31586
C         12.28372        22.72375         0.26487
C         13.58035        24.82534         0.36045
C         12.31722        25.53354         0.75980
C         13.56107        27.67512         0.46968
C         12.34635        27.01505         0.51645
C         13.57918        29.14383         0.79723
C         12.31805        29.87669         0.36891
C         13.62820        31.94008        -0.20570
C         12.32623        31.25569         0.13830
C         13.58774        33.44967        -0.09199
C         12.31694        34.14121        -0.07086
C         13.53219        36.30215        -0.09471
C         12.31710        35.58651        -0.00965
C         13.54182        37.74422        -0.09809
C         12.31710        38.43761        -0.00167
C         16.00683         3.36533         0.18166
C         14.77233         4.01717        -0.04838
C         16.02783         6.22813        -0.05066
C         14.80043         5.46695        -0.32387
C         15.99197         7.62817         0.03223
C         14.76387         8.35892        -0.00941
C         15.97465        10.52249         0.03882
C         14.76677         9.81229         0.09059
C         15.99060        11.94011         0.08730
C         14.75196        12.65261         0.21369
C         15.98655        14.78544         0.11128
C         14.75827        14.09117         0.20707
C         16.00100        16.21936         0.07257
C         14.77007        16.93532         0.05785
C         16.00941        19.05006         0.07543
C         14.79988        18.35932         0.03850
C         16.05154        20.51972         0.41035
C         14.74499        21.24018         0.18769
C         15.98878        23.38102         0.00011
C         14.77398        22.69405         0.22057
C         16.00048        24.80850        -0.02700
C         14.80025        25.52976         0.21137
C         16.01101        27.68131         0.09900
C         14.80775        26.97361         0.28261
C         16.01498        29.14329         0.13012
C         14.85482        29.84346         0.41880
C         16.10004        32.01084         0.14575
C         14.82911        31.33773         0.56654
C         16.10027        33.51123         0.23990
C         14.77245        34.15571        -0.11285
C         15.96730        36.29631        -0.42718
C         14.77431        35.59883        -0.20703
C         15.98533        37.73281        -0.41007
C         14.77059        38.43087        -0.21712
C         18.47046         3.37264         0.45556
C         17.22687         4.07310         0.18036
C         18.50901         6.21766        -0.03932
C         17.23608         5.48994         0.06583
C         18.53259         7.65799         0.21630
C         17.22820         8.38399         0.46664
C         18.48931        10.53525         0.20487
C         17.26197         9.76520        -0.19687
C         18.48527        11.92384         0.13666
C         17.23074        12.65420         0.05427
C         18.47742        14.78636         0.05528
C         17.23472        14.06732         0.07220
C         18.48268        16.20844        -0.00102
C         17.23719        16.92899         0.00407
C         18.48105        19.08437        -0.12964
C         17.24369        18.34929         0.00274
C         18.48000        20.50169        -0.27752
C         17.24766        21.25415        -0.13293
C         18.38863        23.35892        -0.83416
C         17.20624        22.62533        -0.25743
C         18.42844        24.83388        -0.49084
C         17.23642        25.53635        -0.22723
C         18.44667        27.68902        -0.35762
C         17.23271        26.97045        -0.15057
C         18.44882        29.13156        -0.36673
C         17.24908        29.84989        -0.13812
C         18.48263        32.00192        -0.45887
C         17.25391        31.29646        -0.14758
C         18.46677        33.43754        -0.59890
C         17.27303        34.14478        -0.43832
C         18.47289        36.30264        -0.77642
C         17.17630        35.55475        -0.93487
C         18.45201        37.72132        -0.67391
C         17.21485        38.41931        -0.55769
C         19.67243         3.99750         0.52675
C         20.97706         6.20347         0.61016
C         19.82119         5.41972         0.17582
C         20.94578         7.56553         0.59528
C         19.72648         8.31647         0.39046
C         20.96629        10.54366         0.33634
C         19.71237         9.80290         0.70540
C         20.95305        11.88530         0.14868
C         19.72863        12.65415         0.17185
C         20.93623        14.82182         0.08462
C         19.72097        14.06813         0.09736
C         20.93089        16.18989         0.00066
C         19.71175        16.92946        -0.05399
C         20.92033        19.09630        -0.33389
C         19.71126        18.36156        -0.16849
C         20.91696        20.46405        -0.47595
C         19.70301        21.20996        -0.46853
C         20.87308        23.39056        -0.70117
C         19.69816        22.63863        -0.60994
C         20.85802        24.78653        -0.76726
C         19.66064        25.53067        -0.61990
C         20.85953        27.70975        -0.75221
C         19.66660        26.97724        -0.56731
C         20.85920        29.09572        -0.78018
C         19.67305        29.83438        -0.61188
C         20.84488        32.00477        -1.05356
C         19.67474        31.28496        -0.69803
C         20.84795        33.39245        -1.14628
C         19.68413        34.14115        -0.91782
C         20.90181        36.33796        -0.85591
C         19.69379        35.60265        -0.87014
C         20.88791        37.73272        -0.76291
C         19.68583        38.42463        -0.66924
O         19.33532         5.76411        -1.15756
O          5.40117        10.15712         2.15475
O          3.46217        20.07896         1.82597
O          2.47966         9.99981         1.49994
O          5.62912        27.64860        -1.25513
O          9.96655        21.86346        -1.48856
O          9.28834         7.91750         2.01926
O          8.44768        24.37978        -1.38940
O          2.53004        21.66295        -1.48704
O         14.11093         5.84703        -1.55099
O          0.78640        23.52687        -2.03347
H          1.11573        22.67796        -2.41554
O         14.58997        31.65936         1.99294
H         15.34584        31.28500         2.49629
O          6.14483        28.88275         2.18112
H          6.07213        29.74802         2.63703
O         16.21482        20.54591         1.88067
H         16.40649        21.47349         2.13584
O         12.27342        21.17926         2.03891
H         13.04407        21.69642         2.35982
O         19.60494         9.85561         2.19680
H         19.63815        10.80354         2.45133
O          2.82569         5.91673         0.82595
H          3.20903         6.37969         1.61029
O         12.25220        25.40989         2.23927
H         12.83431        26.10556         2.61545
O         17.36617         9.52219        -1.63517
H         17.40005        10.39174        -2.08614
O          3.55422         6.01643        -2.75526
H          3.01534         5.67449        -3.49981
O         18.17879        23.32236        -2.30458
H         18.94409        23.78239        -2.71160
O          7.54070        34.06088         2.24172
H          6.79068        34.56743         2.62064
O          1.25374        24.78801         1.36449
H          1.22271        25.69418         1.73763
O         16.95421        35.44745        -2.40666
H         16.98286        36.36051        -2.76523
O          4.52027         8.18274        -1.58798
H          4.22440         7.59422        -2.32796
O          6.10076        19.28813         2.40732
H          5.22999        19.69321         2.64762
O         11.18760        12.13465        -1.40433
H         10.40707        11.73132        -1.83796
O         13.89887        31.62782        -1.60269
H         13.18243        32.01726        -2.14650
O         16.25570        33.83678         1.68507
H         15.48705        33.41329         2.13719
O         13.42536        19.15105        -1.71236
H         14.22864        19.60367        -2.04828
O          7.43024        25.31916         1.97454
H          6.85030        25.97655         2.41504
O          6.07247        16.34451         2.52046
H          6.12406        17.30335         2.76106
O         17.10198         8.56592         1.90399
H         17.94186         8.98183         2.22799
O         12.10027        12.51404         2.11078
H         12.87146        12.93592         2.54374
O          4.27676         7.76541         2.01925
H          4.61274         8.39070         2.70329
O         13.51681        29.17251         2.27832
H         13.52570        30.12725         2.53134
O          2.18974        29.79911         2.10901
H          1.36164        30.27768         2.33063
O          3.59312        37.91003         2.21549
H          4.41487        37.52331         2.58663
O          8.44624        32.03902        -1.64815
H          8.35738        31.10820        -1.94637
O          2.31814        25.74349        -2.04414
H          1.83077        24.95058        -2.38279
H          1.50615         2.50306        -2.09779
H         -0.45614         3.87031        -2.74738
H         -0.55701         6.27608        -2.24264
H         -0.54152         8.19983        -2.11849
H         -0.68850        10.55765        -1.55697
H         -0.97332        12.22988        -0.51102
H         -1.01892        14.63932        -0.19643
H         -1.07257        16.47536         0.18445
H         -1.09636        18.90394         0.24489
H         -1.03831        20.89126         0.61561
H         -1.05069        23.24949         0.11941
H         -1.01230        25.16432        -0.68468
H         -0.97237        27.58909        -0.68803
H         -1.04252        29.45576        -0.18996
H         -1.00076        31.86516        -0.04477
H         -0.94398        33.77152        -0.22327
H         -0.85645        36.22566        -0.32740
H          0.43009        38.33273        -0.40285
H          3.76124         2.39915        -1.04688
H          2.49479        39.58092         0.11524
H          6.17932         2.33927        -0.59477
H          4.98525        39.56815         0.29643
H          8.61224         2.28914        -0.20828
H          7.41729        39.54892         0.14160
H         11.06331         2.26672        -0.05363
H          9.87016        39.54063         0.08434
H         13.51864         2.26286         0.06758
H         12.31358        39.53749        -0.02008
H         16.01540         2.27901         0.35612
H         14.77792        39.53067        -0.19493
H         18.40222         2.29883         0.68686
H         17.22450        39.51818        -0.51510
H         20.56575         3.44432         0.85414
H         21.87057         5.67350         0.97232
H         21.84704         8.11354         0.90463
H         21.92199        10.00301         0.29078
H         21.90268        12.39781        -0.05944
H         21.90145        14.30193         0.14076
H         21.89388        16.71674        -0.00879
H         21.88361        18.57110        -0.36882
H         21.87661        20.97952        -0.61424
H         21.85225        22.89178        -0.69053
H         21.82196        25.30466        -0.84765
H         21.81393        27.18807        -0.89862
H         21.81499        29.61066        -0.94163
H         21.78092        31.47055        -1.26152
H         21.78768        33.89803        -1.40803
H         21.86805        35.81851        -0.91247
H         21.83864        38.28415        -0.75467
H         19.68125        39.52037        -0.57880
