         630
 CSIRO Nanostructure Databank - Neutral Graphene Oxide Data Set
C         22.96179        27.27408         0.98521
C         22.95297        28.64738         0.87551
C         23.04532        31.54340         0.26949
C         23.06772        32.89389        -0.03609
C         23.12470        35.78912        -0.54815
C         23.15909        37.13649        -0.85571
C         23.20153        40.02624        -1.34082
C         23.24928        41.37826        -1.64579
C         23.39116        44.08966        -2.77409
C         23.43832        45.41804        -3.16105
C         25.39648        24.48312         1.60246
C         24.19601        25.15731         1.34838
C         25.33304        27.32015         1.82435
C         24.13953        26.55252         1.32205
C         25.32104        28.76344         1.39471
C         24.15969        29.42781         1.04452
C         25.36081        31.64279         0.98304
C         24.18320        30.87497         0.77853
C         25.38446        33.01681         0.66102
C         24.23645        33.67232         0.15245
C         25.53212        35.81830        -0.08672
C         24.28294        35.09443        -0.14281
C         25.57397        37.21355        -0.44249
C         24.36746        37.88854        -0.78666
C         25.60723        40.10411        -0.74820
C         24.36838        39.29773        -1.03526
C         25.68539        41.35855        -1.57331
C         24.50812        42.04008        -1.86618
C         25.83558        44.05419        -2.47884
C         24.55794        43.39258        -2.39593
C         25.87564        45.45132        -2.84424
C         24.67249        46.12567        -3.17124
C         25.90173        48.20572        -3.46445
C         24.71307        47.51149        -3.49477
C         27.93120        23.05151         1.94382
C         27.89134        24.46505         1.78789
C         26.63658        25.16360         1.70355
C         27.85565        27.27736         1.50832
C         26.65250        26.59421         1.63137
C         27.82490        28.74216         1.28370
C         26.57664        29.49456         1.62068
C         27.91484        31.65159         1.28748
C         26.59988        30.97939         1.45700
C         27.88280        33.11744         1.28978
C         26.59864        33.82209         0.92096
C         28.05333        35.75873         0.05034
C         26.69823        35.17554         0.36326
C         28.04462        37.26314        -0.05216
C         26.83536        37.93530        -0.40656
C         28.12257        40.01316        -0.75842
C         26.88150        39.31163        -0.70306
C         28.19433        41.33785        -1.28389
C         27.00927        41.87037        -2.05218
C         28.35213        43.98626        -2.53801
C         27.02246        43.36197        -2.22358
C         28.33542        45.49041        -2.55712
C         27.11858        46.16495        -2.84779
C         28.37792        48.28200        -3.10793
C         27.12556        47.56116        -3.13792
C         28.42676        49.65809        -3.43377
C         30.37300        23.04880         1.89357
C         29.12332        22.37022         1.97124
C         30.37722        24.48857         1.82176
C         29.12704        25.18211         1.72323
C         30.36003        27.29092         1.33994
C         29.12426        26.59717         1.51819
C         30.37745        28.73887         1.03123
C         29.08894        29.49744         1.06753
C         30.38161        31.64280         1.52116
C         29.10974        30.96952         1.27988
C         30.33587        33.11884         1.71985
C         29.16643        33.83318         1.17232
C         30.46035        35.88665         0.91386
C         29.21952        35.15455         0.81377
C         30.41615        37.34315         0.69939
C         29.23489        37.98783         0.08441
C         30.56446        40.06733        -0.31442
C         29.30857        39.35789        -0.29623
C         30.60730        41.42121        -0.77398
C         29.41747        42.06078        -1.26905
C         30.71296        44.13796        -1.69441
C         29.50276        43.40299        -1.75344
C         30.75637        45.49922        -2.12984
C         29.56055        46.19162        -2.47739
C         30.80767        48.35087        -2.67403
C         29.58164        47.61303        -2.75199
C         30.80721        49.73705        -2.97108
C         29.62034        50.36006        -3.38055
C         32.80506        20.26147         1.27971
C         31.61650        20.93751         1.43487
C         32.86172        22.98580         2.00017
C         31.58275        22.31074         1.79219
C         32.87054        24.53573         1.98133
C         31.59411        25.21821         1.74073
C         32.87051        27.34311         1.42477
C         31.59630        26.61637         1.47083
C         32.90321        28.75476         1.43932
C         31.66138        29.51265         1.19774
C         32.85295        31.61088         1.91230
C         31.57775        30.95436         1.55203
C         32.91319        33.14219         1.98045
C         31.63158        33.90107         1.82314
C         32.93601        35.94794         1.16631
C         31.65379        35.27995         1.30013
C         32.98017        37.30771         0.80634
C         31.73551        38.08655         0.68380
C         33.01774        40.08178        -0.01827
C         31.76747        39.41796         0.05936
C         33.03912        41.46879        -0.35917
C         31.84372        42.13585        -0.76974
C         33.12399        44.23861        -1.04200
C         31.90097        43.50348        -1.17471
C         33.20112        45.61193        -1.46905
C         32.08930        46.18000        -2.32223
C         33.20320        48.43648        -2.06191
C         32.02936        47.68975        -2.30279
C         33.21894        49.85160        -2.24865
C         32.10003        50.51325        -3.01155
C         33.04563        52.68653        -2.26086
C         31.96642        51.96921        -2.64298
C         35.32069        18.77981         1.25649
C         35.32294        20.15447         1.30204
C         34.07518        20.91561         1.42908
C         35.39918        23.01200         1.92789
C         34.10499        22.27125         1.71249
C         35.32716        24.47528         1.51293
C         34.13670        25.21213         1.60986
C         35.35728        27.35053         1.02453
C         34.09927        26.61661         1.40351
C         35.39015        28.78095         1.49115
C         34.14865        29.48379         1.57982
C         35.35148        31.64965         2.02943
C         34.11969        30.88158         1.75864
C         35.38426        33.11035         1.74117
C         34.18455        33.82716         1.65449
C         35.41425        35.88706         1.10862
C         34.16862        35.21759         1.31704
C         35.42537        37.26359         0.75830
C         34.22182        37.97316         0.59961
C         35.43983        40.12976         0.41218
C         34.23062        39.39166         0.29270
C         35.40763        41.52977         0.26432
C         34.24400        42.20437        -0.18915
C         35.50326        44.33708        -0.34122
C         34.26161        43.60970        -0.47621
C         35.55466        45.74070        -0.73785
C         34.36879        46.36094        -1.28451
C         35.56608        48.52921        -1.34726
C         34.40519        47.77923        -1.58165
C         35.55787        49.96767        -1.48860
C         34.34865        50.62309        -1.91034
C         35.49551        52.81202        -1.74770
C         34.32588        52.05582        -2.00380
C         35.53757        54.23431        -1.90349
C         37.72073        18.68422         0.95049
C         36.53666        18.03600         1.13281
C         37.85098        20.15599         0.94098
C         36.57155        20.90251         1.18599
C         37.72153        23.04486         0.84742
C         36.56563        22.26617         1.31611
C         37.78283        24.46851         1.19282
C         36.58204        25.18949         1.36949
C         37.89955        27.33957         1.14804
C         36.60797        26.59982         1.36288
C         37.85017        28.75558         1.65884
C         36.63643        29.43523         1.70967
C         37.91507        31.63268         1.79967
C         36.65731        30.88558         2.04845
C         37.88697        33.04199         1.62212
C         36.63792        33.77474         1.54715
C         37.90449        35.87560         1.18439
C         36.65000        35.16299         1.25945
C         37.93862        37.27284         0.96485
C         36.71876        37.95244         0.40766
C         37.87753        40.12390         0.89172
C         36.69422        39.43938         0.66538
C         37.85351        41.60576         0.99590
C         36.52742        42.35972         0.81793
C         37.93687        44.37973        -0.02683
C         36.63568        43.69516         0.12616
C         37.91377        45.87601         0.11866
C         36.71690        46.48347        -0.56681
C         37.97423        48.58453        -0.73825
C         36.77217        47.87859        -0.88001
C         37.99097        50.01596        -1.05237
C         36.70841        50.72156        -1.23562
C         37.86218        52.91329        -1.02376
C         36.70724        52.15204        -1.33899
C         37.88172        54.31832        -1.19453
C         36.68392        54.94802        -1.66893
C         40.07975        16.29731        -2.04200
C         39.43241        16.55824        -0.85570
C         40.29131        18.88296        -0.79814
C         39.53767        17.83623        -0.25337
C         40.25552        20.28972        -0.35658
C         39.09455        20.87380         0.42494
C         40.17664        23.16026         0.15963
C         38.92575        22.36895         0.26840
C         40.22766        24.47281         0.62289
C         39.12502        25.06896         1.46502
C         40.37131        27.19418         1.67686
C         39.15579        26.58026         1.50801
C         40.41767        28.66839         2.03075
C         39.11092        29.44745         1.99211
C         40.35931        31.61671         1.65992
C         39.13197        30.92504         1.80831
C         40.35813        33.03425         1.53502
C         39.12117        33.74623         1.50319
C         40.36419        35.88466         1.36550
C         39.12919        35.16969         1.36358
C         40.37959        37.30493         1.28429
C         39.14697        38.00204         1.07622
C         40.39055        40.14170         1.05854
C         39.14956        39.43854         0.99664
C         40.43710        41.54964         0.84657
C         39.16583        42.29930         0.81270
C         40.47069        44.40901         0.37587
C         39.21236        43.66617         0.23642
C         40.52588        45.78913        -0.21911
C         39.22449        46.55338        -0.17537
C         40.42849        48.69264        -0.15156
C         39.21770        47.93033        -0.37152
C         40.41054        50.11416        -0.18900
C         39.22186        50.80681        -0.74441
C         40.29513        53.01285        -0.27918
C         39.00633        52.23822        -0.30791
C         40.28018        54.40745        -0.48641
C         39.07667        55.07712        -0.91510
C         40.27798        57.20869        -0.88014
C         39.12429        56.48845        -1.09301
C         41.78370        16.95802        -3.69542
C         40.97664        17.26542        -2.56789
C         42.19857        19.37934        -2.31425
C         41.13458        18.52566        -1.91502
C         42.51860        20.54357        -1.40739
C         41.27014        21.13742        -0.77500
C         42.47587        23.33453        -0.65259
C         41.31789        22.55267        -0.42884
C         42.56484        24.66473        -0.14188
C         41.43464        25.19711         0.55205
C         42.86983        26.82431         1.49921
C         41.55986        26.41278         1.29809
C         42.93368        28.92785         1.99138
C         41.65113        29.49629         1.87835
C         42.84137        31.61154         1.53621
C         41.61348        30.89911         1.66294
C         42.83746        33.04629         1.50412
C         41.59683        33.75038         1.47848
C         42.82501        35.89572         1.53151
C         41.59830        35.17256         1.44695
C         42.81548        37.30813         1.60106
C         41.61479        38.01702         1.41753
C         42.84018        40.18830         1.41519
C         41.63251        39.45996         1.30609
C         42.85656        41.61265         1.22602
C         41.62898        42.28296         0.90768
C         42.86011        44.46423         0.89349
C         41.63225        43.72817         0.71353
C         42.83763        45.91027         0.75829
C         41.69518        46.57940         0.29397
C         42.78142        48.75229         0.58483
C         41.63489        48.00628         0.25251
C         42.68025        50.22837         0.86334
C         41.49340        50.89327         0.22630
C         42.67352        53.07643         0.34651
C         41.48299        52.33517         0.10915
C         42.67433        54.49598         0.17299
C         41.48353        55.15347        -0.26786
C         42.66769        57.29404        -0.22757
C         41.48489        56.56508        -0.46398
C         42.78918        17.81060        -4.08609
C         44.20979        19.84047        -3.69568
C         43.05638        19.00362        -3.35677
C         44.34572        21.11747        -3.05795
C         43.45408        21.55057        -2.03692
C         44.59632        23.73662        -1.89587
C         43.55693        22.83744        -1.48441
C         44.74664        25.17148        -1.37379
C         43.75369        25.45011        -0.27025
C         45.17314        27.32855         0.57766
C         43.95294        26.54088         0.60374
C         45.36147        28.63659         1.38608
C         44.10500        29.49167         1.50211
C         45.31783        31.59796         1.30993
C         44.08910        30.90836         1.39183
C         45.35311        33.03039         1.74231
C         44.05861        33.76817         1.51881
C         45.31305        35.90080         1.52820
C         44.06815        35.17396         1.55125
C         45.33591        37.31036         1.69655
C         44.05873        38.03198         2.05752
C         45.26849        40.20724         1.84516
C         44.09723        39.50798         1.69694
C         45.19669        41.70113         2.14012
C         44.02886        42.37855         1.45435
C         45.20627        44.58404         1.81684
C         44.02128        43.78669         1.30668
C         45.24553        46.01613         1.35353
C         44.03321        46.66272         1.01336
C         45.22575        48.81249         0.87632
C         44.01390        48.08359         0.83180
C         45.22736        50.23469         0.37971
C         43.94903        50.97807         0.59798
C         45.14722        53.11346         0.68952
C         43.93182        52.37238         0.55582
C         45.05516        54.57930         1.03651
C         43.85085        55.26401         0.41940
C         43.82223        56.64773         0.21673
C         46.22079        20.29246        -5.01739
C         45.14917        19.45426        -4.65113
C         46.32810        21.55605        -4.45810
C         45.36673        22.00842        -3.50384
C         47.41830        24.25237        -2.63523
C         45.39555        23.31165        -2.94191
C         47.35107        25.04926        -1.49077
C         46.15843        25.63087        -0.95952
C         47.59220        27.43997        -0.00518
C         46.28503        26.77672        -0.10422
C         47.66652        28.81561         0.39144
C         46.50877        29.47743         0.86030
C         47.73385        31.62696         0.80532
C         46.51690        30.88733         1.01513
C         47.73842        33.06292         0.93171
C         46.55735        33.77508         1.24827
C         47.75194        35.92287         1.16001
C         46.53981        35.19009         1.31055
C         47.75493        37.34679         1.34659
C         46.53720        38.02491         1.68509
C         47.85322        40.20717         1.94358
C         46.53577        39.45283         2.22952
C         47.84608        41.70726         1.87762
C         46.52865        42.44714         1.98844
C         47.72138        44.55805         1.51648
C         46.52029        43.86946         1.62365
C         47.72242        46.01447         1.45965
C         46.45963        46.72290         1.36631
C         47.66660        48.88987         1.10129
C         46.45464        48.14919         1.10857
C         47.66077        50.31595         0.94369
C         46.44370        51.01814         0.77613
C         47.61995        53.18145         0.95514
C         46.40078        52.43707         0.81021
C         47.54801        54.62090         0.88712
C         46.36845        55.28789         0.84599
C         49.63823        21.80241        -4.47218
C         48.50046        22.53529        -4.11498
C         49.80164        23.67023        -2.39365
C         48.55975        23.47817        -3.05048
C         49.90156        24.70637        -1.34584
C         48.65821        25.39441        -0.86247
C         50.03744        27.44172        -0.39984
C         48.77315        26.78452        -0.38219
C         50.09361        28.83860        -0.11653
C         48.89768        29.52923         0.24482
C         50.14912        31.66642         0.26964
C         48.92469        30.94226         0.46018
C         50.15725        33.08216         0.41330
C         48.95102        33.78263         0.73337
C         50.18331        35.91237         0.81752
C         48.95816        35.20652         0.89506
C         50.17112        37.32921         0.97364
C         48.97762        38.04582         1.19833
C         50.21956        40.28039         0.86258
C         49.07044        39.50834         1.43723
C         50.20335        41.71966         0.90688
C         49.02837        42.42868         1.35591
C         50.19115        44.61829         1.29176
C         48.98626        43.84677         1.39589
C         50.18672        46.03850         1.35860
C         48.92997        46.71814         1.42527
C         50.15932        48.85312         0.96139
C         48.93010        48.22061         1.57410
C         50.14655        50.35873         0.79948
C         48.87591        51.07124         0.98406
C         50.13915        53.16013         1.06753
C         48.86712        52.48403         1.00912
C         50.85648        22.02178        -3.82456
C         52.26453        23.42227        -2.27471
C         50.96589        22.98761        -2.80178
C         52.35736        24.73600        -1.70769
C         51.18789        25.42456        -1.27745
C         52.49040        27.45975        -0.88075
C         51.23826        26.75441        -0.82118
C         52.53081        28.85703        -0.58598
C         51.32850        29.55100        -0.23552
C         52.56537        31.69785        -0.26211
C         51.35259        30.96929        -0.05863
C         52.54856        33.11303        -0.16851
C         51.37476        33.80117         0.20887
C         52.61587        35.90779         0.49943
C         51.40452        35.22288         0.47986
C         52.65502        37.32009         0.88253
C         51.38493        38.06578         0.85682
C         52.61058        39.95855         0.07818
C         51.36478        39.44996         0.59898
C         52.58816        42.09245         0.13922
C         51.37405        42.56055         0.69314
C         52.66700        44.64319         1.04847
C         51.42217        43.93215         1.07130
C         52.67900        46.06267         1.17322
C         51.43649        46.76358         1.27253
C         52.65448        48.90114         0.96323
C         51.45286        48.17600         1.13979
C         52.63809        50.34266         0.84415
C         51.41915        51.07551         0.88176
C         51.34174        52.48878         1.03203
C         54.68853        23.24662        -2.16055
C         53.43768        22.68445        -2.45249
C         54.80403        24.59312        -1.80014
C         53.63060        25.36533        -1.58391
C         54.90150        27.49546        -1.38520
C         53.67985        26.77321        -1.26768
C         54.93458        28.87316        -1.10595
C         53.76250        29.56811        -0.69761
C         55.01970        31.70226        -0.63370
C         53.79934        31.00107        -0.54391
C         55.04407        33.18248        -0.91668
C         53.74676        33.89076        -0.55106
C         55.12042        36.02650        -0.06818
C         53.81131        35.33032        -0.12073
C         55.17454        37.37148         0.22855
C         53.96323        38.05623         0.73786
C         55.10213        40.26755         0.36330
C         53.85481        39.46103         0.33676
C         55.08654        41.77271         0.43554
C         53.85053        42.60351         0.43420
C         55.16819        44.62412         0.89065
C         53.90406        43.95366         0.85756
C         55.16491        46.05485         0.98180
C         53.91590        46.76935         1.05421
C         55.12661        48.91145         0.75791
C         53.90795        48.19614         0.95263
C         55.07624        50.32956         0.65112
C         53.88640        51.01646         0.71216
C         57.34256        24.54431        -1.33070
C         56.13554        25.25909        -1.78970
C         57.43883        27.40203        -1.31839
C         56.16103        26.77414        -1.70479
C         57.52457        28.85226        -1.37777
C         56.17755        29.63908        -1.30775
C         57.49874        31.68368        -0.76990
C         56.25837        31.03091        -0.85234
C         57.55315        33.09823        -0.23037
C         56.29663        33.89646        -0.45367
C         57.59523        36.00322        -0.31614
C         56.33536        35.27536        -0.30995
C         57.59735        37.42979        -0.24573
C         56.38082        38.14655         0.02058
C         57.57232        40.31582        -0.07717
C         56.37240        39.55590         0.07452
C         57.57860        41.75943         0.06912
C         56.36856        42.49932         0.30659
C         57.66842        44.53347         0.76469
C         56.36868        43.86938         0.62169
C         57.66613        46.08921         0.88526
C         56.37671        46.79259         0.84462
C         57.61676        48.86800         0.41658
C         56.37480        48.19496         0.67640
C         58.47924        25.20084        -0.98955
C         59.77925        27.33790        -0.67278
C         58.56753        26.65109        -1.01062
C         59.85433        28.72055        -0.63946
C         58.74495        29.53878        -0.97280
C         59.95844        31.70347        -0.82373
C         58.73886        30.97010        -0.87161
C         59.97954        33.09678        -0.77426
C         58.81399        33.85421        -0.58387
C         60.00115        36.05623        -0.72262
C         58.81045        35.29078        -0.54059
C         59.99757        37.43252        -0.66935
C         58.80355        38.16991        -0.42310
C         59.98169        40.36949        -0.50996
C         58.78914        39.61159        -0.33931
C         59.99362        41.73765        -0.36290
C         58.81703        42.46590        -0.02964
C         60.04831        44.64335         0.14300
C         58.87979        43.87753         0.26190
C         60.04984        46.04474         0.23051
C         58.88194        46.78223         0.45729
C         58.80550        48.19146         0.26965
O         27.04011        33.71263         2.34285
O         57.83800        45.21971         2.04228
O         36.00262        31.24912         3.30110
O         38.54860        42.18923         2.15709
O         47.35644        22.40064        -4.91851
O         56.85120        29.40368        -2.56512
O         38.97971        20.53690         1.83767
O         43.07292        27.66888         2.58967
O         46.31281        24.22423        -3.49366
O         32.93208        23.79796         3.24541
O         52.52340        41.05247        -0.78257
O         49.28934        24.35605        -0.03807
O         30.77217        33.69097         2.98953
O         28.24638        29.10931        -0.08683
O         53.45989        34.94041        -1.53846
O         48.88567        39.79278         2.91028
O         38.89142        17.93614         0.98469
O         56.27395        26.08337        -3.00025
O         30.88900        38.06625         1.89083
O         55.15165        40.95104         1.69062
O         37.90166        22.81640        -0.67304
O         47.38836        42.23808         3.17237
O         31.14132        29.15285        -0.15173
O         38.68021        43.79900        -1.16745
O         38.95984        50.45763        -2.12407
O         50.01356        49.41339        -0.36413
O         32.90340        32.35344         3.19426
O         39.69361        28.97079         3.27284
O         53.51679        37.64224         2.06746
O         26.55089        30.34748         2.80813
O         42.46674        50.31187         2.33805
H         41.55928        49.98649         2.52133
O         32.47956        45.83551        -3.71503
H         33.27485        46.36700        -3.93466
O         43.29415        19.98135        -0.28645
H         42.70028        19.37464         0.20583
O         38.02571        27.51428        -0.32302
H         37.09591        27.60882        -0.67198
O         45.35228        50.10282        -1.10590
H         46.23245        49.70558        -1.28509
O         27.19211        41.29721        -3.44550
H         26.36258        41.48784        -3.93654
O         45.51252        32.97498         3.22116
H         45.48059        33.89965         3.54926
O         35.33119        27.44497        -0.50817
H         35.03572        26.56908        -0.84101
O         37.69976        46.08292         1.56630
H         37.55163        47.04175         1.71095
O         57.60865        32.92260         1.25323
H         57.79723        33.80406         1.64219
O         45.76160        28.23570         2.73234
H         44.97091        27.82542         3.15353
O         25.17471        27.37082         3.29809
H         24.40684        27.95031         3.49079
O         39.42065        24.60674         2.83860
H         38.76856        25.01935         3.44497
O         44.87507        41.79571         3.56897
H         45.61785        41.35029         4.04348
O         28.31554        35.29732        -1.34661
H         27.64926        35.72831        -1.92498
O         36.06180        42.68921         2.17094
H         36.86902        42.89175         2.70124
O         45.02616        44.64681         3.27413
H         44.95947        43.71286         3.60303
O         40.77105        45.56227        -1.66371
H         40.05376        44.95213        -1.96455
O         43.97417        38.01575         3.52058
H         44.78117        38.47896         3.85857
O         55.15964        33.23344        -2.37925
H         54.69125        34.05658        -2.65992
O         36.83749        37.81079        -1.06564
H         37.69872        38.20165        -1.32666
O         49.05052        48.49808         3.01454
H         48.31135        48.03967         3.46842
O         32.51696        50.49231        -4.43172
H         33.36703        50.97931        -4.48751
O         44.37732        26.05031        -2.49016
H         44.98168        25.82434        -3.23371
O         25.43829        40.57508         0.66083
H         24.58278        41.05599         0.69304
O         35.63735        23.02713         3.37918
H         34.79997        23.35849         3.78618
O         46.46774        39.33279         3.68963
H         47.40404        39.23590         3.99433
O         28.63935        43.58398        -3.94196
H         28.39224        42.62547        -4.00698
O         38.58096        52.11173         1.10082
H         38.50219        53.01773         1.46851
O         44.79015        54.60582         2.49566
H         45.52695        54.12761         2.93288
H         22.04100        26.70879         0.77529
H         22.01200        29.14822         0.61383
H         22.11432        30.98829         0.09495
H         22.15427        33.35325        -0.43615
H         22.16184        35.26487        -0.60898
H         22.22253        37.63066        -1.14412
H         22.22299        39.52644        -1.35864
H         22.30835        41.90837        -1.83907
H         22.41798        43.58142        -2.75841
H         22.51544        45.94590        -3.43999
H         25.37335        23.38548         1.61969
H         23.28831        24.57440         1.13065
H         25.88818        49.27723        -3.70174
H         23.77723        48.02770        -3.75273
H         26.99751        22.48264         2.03992
H         27.52044        50.18953        -3.74962
H         29.10850        21.27864         2.08960
H         29.62475        51.41697        -3.67789
H         32.77047        19.20009         1.00213
H         30.67533        20.39716         1.26539
H         32.93864        53.76612        -2.08238
H         31.00756        52.48345        -2.79744
H         34.38469        18.21446         1.34817
H         34.64133        54.76994        -2.24482
H         36.51642        16.94126         1.20216
H         36.66495        56.03407        -1.82919
H         39.97136        15.32612        -2.54449
H         38.80052        15.80105        -0.37362
H         40.28115        58.29821        -1.02849
H         38.22346        57.02900        -1.41251
H         41.62160        16.00822        -4.22474
H         42.67085        58.38363        -0.37377
H         43.41372        17.53875        -4.94694
H         44.71298        57.25673         0.42093
H         46.95750        19.95303        -5.75668
H         45.07589        18.47291        -5.13779
H         48.48282        55.19694         0.83504
H         46.38356        56.38585         0.80863
H         49.57580        21.07766        -5.29464
H         50.15887        54.25436         1.15881
H         51.74590        21.46766        -4.15463
H         52.26703        53.07580         1.11414
H         55.59501        22.64520        -2.31704
H         53.39241        21.65934        -2.84562
H         56.00282        50.90306         0.51933
H         53.90356        52.11036         0.61638
H         57.28865        23.45157        -1.21451
H         57.62019        49.95699         0.27886
H         59.35933        24.63525        -0.64988
H         60.66664        26.74203        -0.41565
H         60.80088        29.19218        -0.34011
H         60.91006        31.16713        -0.94020
H         60.95015        33.60041        -0.88773
H         60.95370        35.54250        -0.90996
H         60.94966        37.95983        -0.81499
H         60.92596        39.86199        -0.74663
H         60.94739        42.26879        -0.47964
H         60.99289        44.15559        -0.13394
H         60.98137        46.58507         0.00674
H         59.72101        48.74238         0.00911
