         430
 CSIRO Nanostructure Databank - Neutral Graphene Oxide Data Set
C         27.99126        27.32798         0.93059
C         27.94997        28.74588         1.08360
C         26.75781        29.46025         1.13227
C         27.93403        31.61199         0.99097
C         26.74686        30.87000         1.12324
C         27.91601        33.08502         0.59804
C         26.66264        33.84275         0.94862
C         27.89006        35.95133         1.53748
C         26.64976        35.13884         1.27336
C         27.88684        37.34585         0.93526
C         26.83042        37.88596         0.25040
C         27.96249        40.05638        -0.06143
C         26.83760        39.23236        -0.21120
C         27.97312        41.45531        -0.47500
C         26.97210        42.03262        -1.22541
C         28.06110        44.23204        -1.22257
C         26.98029        43.41512        -1.55264
C         28.09289        45.62853        -1.60196
C         30.42484        27.37556         0.53042
C         29.17130        26.66878         0.69891
C         30.45364        28.77381         0.74442
C         29.24615        29.47208         1.31756
C         30.40015        31.65288         0.83317
C         29.17600        30.93895         0.97166
C         30.38331        33.08375         0.95844
C         29.18452        33.80731         1.01238
C         30.34920        35.97723         1.01664
C         29.17062        35.22474         1.15566
C         30.38765        37.39767         0.96565
C         29.11623        38.17910         1.21349
C         30.36836        40.23977         0.51784
C         29.14150        39.50938         0.51615
C         30.38549        41.62561         0.24509
C         29.06085        42.32656         0.10601
C         30.36482        44.41216        -0.35404
C         29.19538        43.67254        -0.54753
C         30.30800        45.87482        -0.55841
C         29.13292        46.42363        -1.25772
C         32.72207        24.66927        -0.70413
C         31.61938        25.29489        -0.21306
C         32.83338        27.43203        -0.00679
C         31.61093        26.70147         0.10813
C         32.85315        28.83878         0.22362
C         31.64406        29.51995         0.54859
C         32.86890        31.68006         0.48662
C         31.63828        30.95567         0.66533
C         32.89220        33.08044         0.59601
C         31.67383        33.77899         1.02875
C         32.76354        35.96613         0.23198
C         31.64716        35.28099         0.97455
C         32.83921        37.42180         0.60424
C         31.60423        38.10026         0.82002
C         32.81175        40.26283         0.73718
C         31.60717        39.55570         0.75420
C         32.83082        41.66979         0.50875
C         31.59717        42.35835         0.26416
C         32.83854        44.49471         0.00770
C         31.59779        43.78104         0.03212
C         32.87977        45.88062        -0.33650
C         31.62776        46.64681        -0.50960
C         32.91711        48.55061        -1.37829
C         31.71967        47.97173        -1.14141
C         35.36586        23.14665        -0.94870
C         35.34953        24.61155        -0.97729
C         33.98748        25.38833        -0.86398
C         35.28599        27.43502        -0.29490
C         34.04424        26.76916        -0.38170
C         35.30960        28.84936        -0.05020
C         34.09173        29.55748         0.12366
C         35.32629        31.70075         0.14494
C         34.10022        30.97707         0.24481
C         35.33886        33.12361         0.17031
C         34.09542        33.83860         0.36925
C         35.25829        36.00926        -0.15868
C         34.06684        35.23121         0.30889
C         35.28600        37.43189         0.34446
C         34.07224        38.09152         0.62025
C         35.33417        40.26643         0.72059
C         34.08027        39.52677         1.09362
C         35.31581        41.67429         0.61669
C         34.06840        42.38873         0.48657
C         35.32473        44.48965         0.14980
C         34.07707        43.78792         0.22587
C         35.33912        45.86183        -0.22830
C         34.11206        46.54556        -0.51893
C         35.37414        48.59738        -1.06484
C         34.15852        47.90734        -1.00191
C         35.49970        49.92413        -1.64958
C         37.79780        23.15176        -0.64601
C         36.52936        22.47107        -0.78182
C         37.80503        24.56103        -0.44800
C         36.56521        25.31542        -0.53663
C         37.74100        27.39995         0.11931
C         36.51934        26.68976        -0.31213
C         37.78514        28.86578         0.01732
C         36.55398        29.56637        -0.01944
C         37.80350        31.68962         0.01510
C         36.56036        30.98639         0.04144
C         37.79833        33.12198        -0.03971
C         36.56269        33.83946         0.02166
C         37.74036        36.00899        -0.02244
C         36.55587        35.27687         0.01457
C         37.76075        37.43350         0.16733
C         36.53321        38.11966         0.40783
C         37.79231        40.25063         0.67138
C         36.54442        39.54694         0.61291
C         37.76420        41.67679         0.75612
C         36.56002        42.38441         0.59788
C         37.78928        44.53182         0.38629
C         36.56762        43.81842         0.40603
C         37.79631        45.93308         0.07412
C         36.57364        46.57194        -0.28595
C         37.79204        48.68595        -0.54220
C         36.58729        47.95887        -0.61371
C         37.70924        50.18949        -0.55792
C         36.62247        50.65708        -1.49648
C         40.25141        20.35131        -1.10691
C         39.06741        21.02485        -0.96451
C         40.27019        23.14568        -0.63304
C         39.03182        22.43901        -0.73151
C         40.27644        24.55149        -0.37517
C         39.04541        25.22949        -0.25709
C         40.30537        27.42512         0.03146
C         39.05348        26.64916         0.12706
C         40.26738        28.81188         0.08354
C         39.02219        29.54755         0.06647
C         40.28288        31.69560        -0.14206
C         39.03158        30.97763         0.01455
C         40.25516        33.14130        -0.28377
C         39.03074        33.82031        -0.20775
C         40.29084        36.05484        -0.26903
C         38.98645        35.28770        -0.33266
C         40.26318        37.45741         0.16047
C         39.01540        38.13999         0.29844
C         40.30195        40.15280         1.11735
C         39.01377        39.52741         0.61357
C         40.31682        41.68127         1.08129
C         39.01525        42.43301         0.94979
C         40.26350        44.54996         0.63300
C         39.04949        43.86808         0.61690
C         40.23259        46.06983         0.72636
C         39.00575        46.66570         0.08430
C         40.27815        48.75074        -0.40132
C         39.01453        48.03320        -0.25483
C         40.26245        50.10637        -0.71494
C         39.03976        50.86297        -0.78430
C         40.28690        52.96884        -0.92130
C         39.06468        52.23921        -0.90923
C         42.72905        20.35496        -1.16313
C         41.49973        21.04005        -1.02198
C         42.74858        23.13855        -0.66549
C         41.50514        22.44173        -0.77917
C         42.73760        24.53154        -0.34241
C         41.53481        25.25762        -0.21430
C         42.76433        27.42391        -0.06115
C         41.55072        26.69332        -0.04252
C         42.79077        28.84131        -0.10590
C         41.54474        29.58680         0.30638
C         42.72847        31.69249        -0.67436
C         41.48629        31.00898        -0.17132
C         42.74555        33.16310        -0.34082
C         41.51455        33.86851        -0.29310
C         42.75195        35.98701        -0.03997
C         41.53498        35.28092        -0.16149
C         42.74931        37.41838         0.11243
C         41.51565        38.13142         0.29318
C         42.75585        40.24685         0.47942
C         41.54562        39.52383         0.54872
C         42.75868        41.69123         0.54944
C         41.55007        42.41124         0.72787
C         42.76059        44.53486         0.52757
C         41.51910        43.83046         0.65423
C         42.77250        46.03616         0.75579
C         41.51831        46.74143         0.28607
C         42.82461        48.64851        -0.73235
C         41.52945        48.00595        -0.23766
C         42.80060        50.16095        -0.70233
C         41.52093        50.81839        -1.14660
C         42.74344        53.01122        -0.87190
C         41.49522        52.31029        -0.92531
C         43.93019        21.03529        -1.07043
C         45.25051        23.13305        -0.75483
C         43.97709        22.42829        -0.82318
C         45.28149        24.51371        -0.45678
C         44.02589        25.18518        -0.08188
C         45.29532        27.42059        -0.22887
C         44.04196        26.70681         0.03596
C         45.26508        28.82639        -0.30024
C         44.00834        29.54307        -0.24741
C         45.22001        31.68242        -0.40252
C         44.02120        30.97423        -0.36713
C         45.22597        33.13784        -0.36839
C         43.97191        33.85196        -0.26092
C         45.21696        35.98585        -0.06458
C         43.98322        35.27244        -0.10681
C         45.21736        37.40536         0.05096
C         43.97848        38.12228         0.15651
C         45.22012        40.26979         0.23705
C         43.98486        39.54717         0.28404
C         45.20914        41.67885         0.26235
C         43.98622        42.39787         0.38726
C         45.24391        44.55004         0.48941
C         43.96766        43.83750         0.42704
C         45.24912        46.00714         0.49362
C         44.05929        46.70110         0.35629
C         45.22708        48.79914        -0.09368
C         44.06675        48.08525        -0.07445
C         45.28453        50.15223        -0.76899
C         43.96011        50.88843        -0.69026
C         43.92527        52.33131        -0.80626
C         47.68349        23.14659        -0.87482
C         46.48550        22.46978        -0.97375
C         47.72741        24.54186        -0.62509
C         46.50069        25.24290        -0.44931
C         47.73325        27.39971        -0.49093
C         46.51484        26.69195        -0.35263
C         47.73065        28.83841        -0.46741
C         46.49475        29.54717        -0.37632
C         47.70697        31.67203        -0.42786
C         46.48849        30.97424        -0.38946
C         47.71615        33.14861        -0.71633
C         46.42908        33.84585        -0.35020
C         47.68231        35.96454        -0.08224
C         46.44619        35.26488        -0.17941
C         47.68172        37.37870         0.05871
C         46.45442        38.11523         0.08287
C         47.71293        40.22918         0.20172
C         46.46777        39.54048         0.16452
C         47.75240        41.69307         0.27672
C         46.47610        42.44003        -0.04562
C         47.69082        44.57427         0.74559
C         46.43054        43.85747         0.46873
C         47.70523        46.03771         0.57265
C         46.51955        46.71269         0.45355
C         47.73954        48.80926        -0.26023
C         46.50019        48.22563         0.48340
C         47.66691        50.31173        -0.12086
C         46.50247        50.93405        -0.34016
C         50.22344        24.57348        -0.55793
C         48.97998        25.25593        -0.57278
C         50.21704        27.38148        -0.60537
C         48.98621        26.68243        -0.56317
C         50.22016        28.85877        -0.90072
C         48.94740        29.56442        -0.51939
C         50.19606        31.70182        -0.30904
C         48.94640        30.97288        -0.44163
C         50.17853        33.10440        -0.11861
C         48.95931        33.84395        -0.22736
C         50.14882        35.94320         0.23002
C         48.92806        35.23047        -0.04782
C         50.13555        37.34423         0.31754
C         48.92289        38.08320         0.18433
C         50.20075        40.27294         0.05385
C         48.91665        39.50265         0.21353
C         50.19225        41.59931         0.81576
C         48.92104        42.35486         0.51985
C         50.25939        44.53867         0.53619
C         48.97788        43.81857         0.76486
C         50.27227        45.94759         0.45937
C         49.02016        46.72898         0.61186
C         50.30724        48.74230        -0.26575
C         49.03970        48.19892         0.24069
C         51.41580        25.26035        -0.52320
C         52.69516        27.40884        -0.52741
C         51.45027        26.68495        -0.56210
C         52.69145        28.84996        -0.44518
C         51.46743        29.57311        -0.45725
C         52.65770        31.65116         0.07024
C         51.44217        30.97027        -0.23716
C         52.65545        33.07393         0.31214
C         51.39773        33.81001         0.20728
C         52.61687        35.92818         0.67613
C         51.36573        35.19116         0.39656
C         52.63216        37.33654         0.31881
C         51.39410        38.06229         0.74121
C         52.65990        40.16955         0.50624
C         51.43279        39.50840         0.40525
C         52.67072        41.64004         0.47185
C         51.47003        42.35723         0.50117
C         52.68851        44.49445         0.20954
C         51.46443        43.79945         0.39543
C         52.71696        45.90500         0.15818
C         51.48978        46.63749         0.21165
C         51.45912        48.03410        -0.16949
C         55.14121        27.38218        -0.35086
C         53.95016        26.72525        -0.39515
C         55.22297        28.86515        -0.55441
C         53.91111        29.55251        -0.27631
C         55.11824        31.55919         0.45654
C         53.90218        30.93287         0.05725
C         55.11745        32.99052         0.91649
C         53.85725        33.72859         0.55587
C         55.17335        35.91962         0.45489
C         53.90761        35.18523         0.73783
C         55.16413        37.27840         0.23881
C         53.89243        38.05226        -0.04024
C         55.15280        40.11975         0.95642
C         53.87227        39.44646         0.52999
C         55.14447        41.61197         0.60395
C         53.93523        42.29488         0.38596
C         55.20643        44.47089         0.29603
C         53.95374        43.72915        -0.07764
C         55.17865        45.89360         0.24940
C         53.99563        46.58055         0.11917
C         56.36517        29.48241         0.19254
C         56.29484        30.77492         0.62691
C         56.35823        33.76270         0.52296
C         56.37865        35.10782         0.39944
C         56.37340        38.08161         0.13286
C         56.36956        39.39952         0.41800
C         56.34759        42.34765         0.68057
C         56.36882        43.74701         0.55819
O         31.96140        34.62126         2.22591
O         30.71479        46.62122         0.64701
O         48.32527        44.16342         2.05218
O         38.31354        26.89507         1.38268
O         44.10358        25.84280         1.23034
O         39.65342        42.20979         2.28180
O         49.08724        47.79614         1.64496
O         34.67535        25.17928        -2.14229
O         53.25842        35.60110         2.03310
O         39.60696        35.80469        -1.56693
O         46.50196        42.58078        -1.51824
H         45.65324        42.99116        -1.79016
O         47.68437        48.43368        -1.65248
H         46.93380        48.93158        -2.07553
O         40.06214        46.36184         2.15417
H         40.94544        46.23347         2.57893
O         34.10672        39.44317         2.56567
H         34.09141        40.35992         2.91370
O         35.07768        36.13994        -1.65309
H         35.42678        35.31586        -2.05770
O         54.00244        43.62308        -1.56801
H         54.84112        43.16437        -1.79078
O         42.74675        46.17757         2.23458
H         43.57017        45.77317         2.58453
O         37.28855        50.58982         0.79309
H         36.47098        50.09073         1.00451
O         55.24219        40.03548         2.41707
H         54.39347        40.36062         2.78567
O         29.45048        29.43585         2.79208
H         28.69707        29.91847         3.19530
O         41.66367        29.69462         1.78167
H         41.57350        28.78872         2.14935
O         55.50469        29.07435        -2.00262
H         54.72629        28.73369        -2.49376
O         42.63052        31.62774        -2.15775
H         41.86301        32.18118        -2.41977
O         47.78907        33.24401        -2.19456
H         46.98683        32.80673        -2.55285
O         51.43460        37.99678         2.21828
H         51.86683        37.14930         2.47362
O         27.93494        36.10192         2.98791
H         28.55917        36.84409         3.19100
O         45.43345        49.85620        -2.21023
H         44.65028        49.29847        -2.45653
O         55.10947        32.94660         2.39272
H         54.81853        33.83120         2.70757
O         27.94988        33.07626        -0.87395
H         28.74572        32.57232        -1.14729
O         50.26086        28.93808        -2.38676
H         49.45412        28.48939        -2.71964
O         41.53230        50.64861        -2.63837
H         40.77073        51.16276        -2.98561
O         46.55550        48.64560         1.86947
H         47.42165        48.32805         2.22944
O         32.36638        35.92701        -1.18412
H         33.17521        36.17935        -1.69862
O         50.19155        41.30117         2.23461
H         49.91842        42.11106         2.71587
O         50.29527        40.63522        -1.36269
H         50.06045        39.84821        -1.89741
O         28.61434        42.61980         1.49579
H         29.22445        43.29956         1.85594
O         42.95511        48.30989        -2.16197
H         42.33633        48.91171        -2.64665
O         53.91014        38.21853        -1.53460
H         53.15808        38.80611        -1.76454
O         29.12158        38.49856         2.66956
H         28.43671        39.18608         2.81844
O         40.32895        39.76448         2.53354
H         39.87170        40.49155         3.02175
H         27.04598        26.76489         0.95824
H         25.80043        28.91910         1.09421
H         25.77541        31.38157         1.12602
H         25.70211        33.32185         0.81596
H         25.68662        35.62609         1.49335
H         25.93027        37.28107         0.06510
H         25.92822        39.62280        -0.68773
H         26.13952        41.41939        -1.60019
H         26.13760        43.83644        -2.11886
H         27.22241        46.04787        -2.12783
H         29.14807        25.57759         0.58094
H         29.09689        47.49967        -1.47567
H         32.66044        23.61838        -1.01833
H         30.69162        24.71553        -0.11487
H         32.94646        49.55766        -1.81548
H         30.79414        48.52018        -1.36204
H         34.43326        22.59664        -1.13455
H         34.68052        50.31516        -2.27002
H         36.50500        21.37359        -0.79926
H         36.70164        51.64724        -1.96915
H         40.25381        19.26695        -1.28891
H         38.12953        20.45968        -1.04016
H         40.25840        54.06719        -0.87324
H         38.12093        52.80139        -0.89761
H         42.72300        19.27128        -1.34794
H         42.73212        54.11128        -0.87603
H         44.86190        20.46637        -1.18544
H         44.86575        52.89692        -0.80442
H         48.61496        22.58806        -1.03510
H         46.50704        21.39798        -1.20899
H         48.55811        50.88052         0.18644
H         46.44152        52.02539        -0.22568
H         50.24843        23.47594        -0.54391
H         50.30538        49.73830        -0.73170
H         52.34936        24.68458        -0.48876
H         52.38820        48.49585        -0.53060
H         56.07927        26.81686        -0.24820
H         53.95712        25.63006        -0.30679
H         56.12523        46.44611         0.34829
H         54.02419        47.67796         0.10038
H         57.28294        28.89324         0.33549
H         57.16012        31.22551         1.13453
H         57.30086        33.20454         0.42370
H         57.33201        35.60514         0.16739
H         57.32096        37.59684        -0.14846
H         57.31669        39.95475         0.35770
H         57.28478        41.83445         0.93320
H         57.31243        44.28537         0.73224
