         334
 CSIRO Nanostructure Databank - Neutral Graphene Oxide Data Set
C         30.31230        57.13647         0.48650
C         30.28548        58.54820         0.66051
C         29.07074        59.25363         0.82036
C         30.26878        61.35438         1.02418
C         29.07191        60.63829         0.99633
C         32.74868        52.92734        -0.12478
C         32.72251        54.32544        -0.09394
C         31.53785        55.02904         0.17887
C         32.76890        57.18310         0.28089
C         31.51377        56.44682         0.28863
C         32.76109        58.59161         0.53233
C         31.51986        59.27545         0.69102
C         32.75250        61.38933         0.91294
C         31.50683        60.68708         0.87628
C         35.26647        48.57329        -0.27698
C         35.24184        50.03649         0.07618
C         33.96483        50.80444        -0.16218
C         35.19349        52.91348        -0.75703
C         33.94683        52.17149        -0.32310
C         35.24226        54.36655        -0.31289
C         33.94800        55.12131        -0.50083
C         35.21688        57.21025         0.18965
C         33.98027        56.52002         0.05923
C         35.22533        58.60511         0.45989
C         33.98823        59.30932         0.58693
C         35.23427        61.53229         0.86057
C         33.95720        60.73041         0.78488
C         37.73163        44.32205        -0.11821
C         37.71564        45.72297        -0.22011
C         36.49815        46.44848        -0.27494
C         37.76001        48.63013        -0.05806
C         36.45675        47.86755        -0.24215
C         37.69627        49.97544        -0.79576
C         36.46376        50.76961        -0.41811
C         37.72069        52.86194        -0.64902
C         36.45422        52.11837        -0.51681
C         37.70369        54.33460        -0.37658
C         36.41906        55.04239        -0.14097
C         37.67374        57.15677         0.33383
C         36.46546        56.48918         0.11599
C         37.71029        58.58211         0.54607
C         36.47967        59.30691         0.57174
C         37.71481        61.39434         0.74602
C         36.49939        60.71871         0.72309
C         40.28288        40.10191         0.78336
C         40.24743        41.60165         0.75671
C         38.98575        42.23305         0.24781
C         40.19998        44.31538        -0.27034
C         38.95839        43.59259        -0.03549
C         40.20002        45.67794        -0.44846
C         38.97742        46.43703        -0.33702
C         40.23922        48.52521        -0.59164
C         39.00178        47.83394        -0.42615
C         40.26643        50.01766        -0.84229
C         38.97429        50.75181        -0.58229
C         40.19597        52.82463         0.05697
C         38.97773        52.09802        -0.46410
C         40.16288        54.32228        -0.11623
C         38.97429        54.99357        -0.03370
C         40.24195        57.08825         0.61378
C         38.90477        56.33104         0.64863
C         40.24548        58.57610         0.77991
C         38.94273        59.29748         0.70849
C         40.22569        61.49840         0.75291
C         38.94068        60.69993         0.73097
C         42.77431        35.93552         1.58745
C         42.72158        37.32761         1.40096
C         41.51830        38.01961         1.18861
C         42.74851        40.16178         0.80243
C         41.48339        39.42847         0.93825
C         42.70179        41.56140         0.40353
C         41.51325        42.20096         0.18936
C         42.72475        44.31049        -0.48538
C         41.44244        43.51298        -0.56886
C         42.72925        45.66586        -0.62222
C         41.43712        46.36889        -0.97538
C         42.70954        48.55555        -0.77788
C         41.45701        47.85312        -0.71914
C         42.74398        49.97958        -0.63960
C         41.47957        50.64487        -0.15821
C         42.64236        52.84507        -0.50609
C         41.49155        52.14609        -0.29400
C         42.58978        54.31412        -0.71987
C         41.40683        55.06317        -0.21861
C         42.58347        57.24643        -0.38876
C         41.42801        56.41780         0.01045
C         42.69528        58.64534         0.03487
C         41.53717        59.39392         0.66158
C         42.66908        61.48592        -0.00523
C         41.34084        60.75241        -0.01403
C         45.21552        33.07827         1.59629
C         44.01644        33.78050         1.69015
C         45.23330        35.85968         1.33552
C         44.00103        35.19663         1.56946
C         45.27377        37.32997         1.28232
C         43.98525        38.09612         1.35389
C         45.23155        40.16598         0.62811
C         43.95967        39.50087         0.89294
C         45.24949        41.54248         0.35377
C         43.98810        42.35998         0.45246
C         45.25410        44.32506        -0.42709
C         43.99745        43.50551        -0.55605
C         45.23326        45.71546        -0.61349
C         43.97015        46.41990        -0.70523
C         45.20651        48.54408        -1.03264
C         43.93674        47.81239        -0.84968
C         45.18812        50.05337        -1.03632
C         43.91197        50.73900        -0.77242
C         45.13709        52.89503        -0.77833
C         43.92007        52.16873        -0.69117
C         45.16833        54.33008        -0.77316
C         43.88411        55.04862        -0.94752
C         45.14078        57.24079        -0.63094
C         43.86762        56.54099        -0.83981
C         45.11464        58.64322        -0.45256
C         43.86428        59.33721        -0.18474
C         45.12946        61.47603        -0.02775
C         43.86490        60.80124        -0.05149
C         46.42766        33.74061         1.37589
C         47.69420        35.86884         1.06971
C         46.45648        35.14746         1.23184
C         47.73289        37.24163         0.82066
C         46.42349        37.93475         0.51207
C         47.68171        40.10661         0.45475
C         46.46034        39.43821         0.59457
C         47.70033        41.52056         0.26153
C         46.46905        42.22238         0.11873
C         47.71205        44.31980        -0.28467
C         46.47388        43.63124        -0.19956
C         47.71548        45.74506        -0.50489
C         46.47749        46.43810        -0.62775
C         47.66759        48.58330        -0.58799
C         46.48387        47.85592        -0.73590
C         47.63505        50.05776        -0.26876
C         46.42055        50.79557        -0.73773
C         47.64283        52.91941        -0.66157
C         46.40049        52.18126        -0.71701
C         47.63365        54.33817        -0.64428
C         46.36475        55.05047        -0.66379
C         47.57558        57.24125        -0.56663
C         46.36153        56.51260        -0.61480
C         47.55786        58.64884        -0.53269
C         46.34036        59.35435        -0.41378
C         47.57957        61.45577         0.05645
C         46.33688        60.79435        -0.16579
C         48.93261        37.97293         0.71731
C         50.15514        40.08193         0.40455
C         48.94923        39.37792         0.50763
C         50.20834        41.50921         0.29448
C         48.93724        42.22833         0.17857
C         50.21803        44.29149        -0.25870
C         48.92413        43.60551        -0.07956
C         50.21464        45.78309        -0.50043
C         48.92592        46.48385        -0.52360
C         50.14758        48.64002        -0.38550
C         48.91476        47.89870        -0.48332
C         50.13087        50.07099        -0.48049
C         48.91408        50.78771        -0.55672
C         50.11544        52.93014        -0.77671
C         48.89146        52.20709        -0.66605
C         50.09430        54.36332        -0.84629
C         48.86165        55.04642        -0.69066
C         50.04836        57.24629        -1.08296
C         48.89545        56.52430        -0.37307
C         50.09493        58.68578        -0.62859
C         48.81299        59.46047        -0.79663
C         50.01368        61.38008         0.30252
C         48.80240        60.79597        -0.09248
C         51.41028        42.20196         0.32309
C         52.68331        44.40840         0.07005
C         51.41563        43.70084         0.45238
C         52.68439        45.80527        -0.10942
C         51.44293        46.53283        -0.24047
C         52.62082        48.68245        -0.16660
C         51.40170        47.94764        -0.24823
C         52.60067        50.10786        -0.28127
C         51.36720        50.79740        -0.48939
C         52.59738        52.88997        -0.77452
C         51.36046        52.20971        -0.67818
C         52.62668        54.34078        -1.19304
C         51.33030        55.09981        -0.97431
C         52.56233        57.25212        -0.77270
C         51.35902        56.50215        -0.93049
C         52.53952        58.60130        -0.34821
C         51.26062        59.30340        -0.26219
C         52.43476        61.28294         0.64321
C         51.24642        60.68772         0.21284
C         53.89103        46.55674        -0.12893
C         55.08729        48.70085        -0.07172
C         53.88931        47.97717        -0.12637
C         55.06847        50.16486         0.25206
C         53.81824        50.83816        -0.25870
C         55.10849        52.90861        -0.90367
C         53.81203        52.19886        -0.59258
C         55.07538        54.33692        -0.37648
C         53.74740        55.09514        -0.43347
C         55.07544        57.26746        -0.39075
C         53.88461        56.54875        -0.96658
C         55.01041        58.60412        -0.06951
C         53.73381        59.27582         0.02540
C         54.83575        61.20583         1.13412
C         53.68394        60.60523         0.58298
C         56.34278        50.90514        -0.05766
C         57.61476        52.95428        -0.57122
C         56.36634        52.19465        -0.46231
C         57.64672        54.31242        -0.57181
C         56.37600        55.06169        -0.35213
C         57.66190        57.26691        -0.28610
C         56.36663        56.54792        -0.51544
C         57.59421        58.69076         0.17565
C         56.24063        59.37429         0.24373
C         57.24491        61.12644         1.68231
C         56.11133        60.59489         1.07073
C         58.95335        55.09435        -0.62991
C         59.83397        56.97909         0.82308
C         58.85218        56.45009         0.05084
C         59.74779        58.32200         1.39226
C         58.63797        59.15217         1.10954
C         59.53781        60.86828         2.59112
C         58.48588        60.40724         1.75927
C         60.76297        58.80546         2.23789
C         60.66318        60.08103         2.80727
O         55.73450        54.58684         0.90508
O         37.76036        53.79872        -1.79020
O         50.41998        44.78009        -1.60087
O         45.25395        49.29296        -2.30862
O         40.44349        57.68508         1.95702
O         57.17968        57.01951        -1.65966
O         57.17453        59.60400        -0.87699
O         44.87919        37.95932         2.53635
O         43.06338        54.61098        -2.07884
O         42.97228        57.13512        -1.81298
O         35.13870        52.97591        -2.23504
H         36.00641        53.37160        -2.50807
O         41.30872        43.13905        -1.99044
H         42.16775        42.71263        -2.23834
O         40.47164        50.15893        -2.27467
H         39.69606        49.74622        -2.71839
O         38.67088        55.92021         2.03797
H         39.17533        56.55207         2.60487
O         44.00159        42.98439         1.77250
H         44.14248        42.27910         2.43846
O         54.15483        56.52353        -2.41700
H         55.03595        56.92758        -2.58225
O         33.81465        55.31306        -1.95242
H         34.04835        54.44500        -2.37108
O         46.12095        37.62430        -0.89066
H         46.86714        37.95190        -1.43587
O         41.34167        46.22103        -2.43858
H         41.21724        45.25835        -2.61389
O         49.19731        56.61763         1.05341
H         48.54023        56.07703         1.53948
O         55.21391        53.00099        -2.35072
H         54.34772        53.34571        -2.69789
O         59.32455        55.30781        -2.00161
H         58.66028        55.92795        -2.38308
O         40.27798        42.00374         2.19851
H         41.09734        41.62264         2.58251
O         52.86015        54.29781        -2.63099
H         53.11902        55.20514        -2.93017
O         35.35875        50.07503         1.55615
H         34.71395        49.43107         1.91811
O         48.74200        59.78122        -2.23060
H         48.82080        58.91780        -2.70576
O         40.89526        60.56424        -1.36944
H         40.49658        61.41208        -1.66214
O         47.50960        50.07851         1.22800
H         48.34910        49.71701         1.58701
O         39.98479        62.76713         0.13701
H         40.73304        63.36204         0.34484
O         44.03243        42.87790        -1.88523
H         44.29928        43.56548        -2.53233
O         41.35945        50.31672         1.26925
H         42.19039        50.59176         1.71159
O         35.21530        62.58486        -0.12141
H         35.19273        62.17150        -1.00872
O         53.25855        55.19487         0.91841
H         54.04381        55.16551         1.51414
O         41.93893        59.72966         2.01886
H         41.79266        58.92101         2.56209
O         54.96281        50.21764         1.73576
H         54.15184        49.72411         1.98421
O         37.58556        49.66361        -2.21631
H         37.33764        50.48678        -2.68890
O         51.17445        44.00903         1.88812
H         51.87784        43.56181         2.40482
O         49.72935        57.23009        -2.51242
H         50.55148        57.43376        -3.00684
O         40.07737        52.69190         1.52222
H         40.22164        51.73528         1.73390
O         37.91114        48.95277         1.34817
H         37.87936        48.11757         1.85872
H         29.36394        56.57803         0.49932
H         28.12014        58.70141         0.80094
H         30.25634        62.44491         1.16326
H         28.11759        61.17067         1.11482
H         31.82310        52.37735         0.11249
H         30.60306        54.46903         0.33995
H         32.74520        62.48073         1.05019
H         34.31302        48.02601        -0.35724
H         33.02406        50.30138         0.12222
H         35.26534        62.05004         1.85938
H         36.78046        43.77669        -0.02498
H         35.55005        45.88978        -0.30903
H         37.72389        62.49219         0.78818
H         39.33520        39.55073         0.88518
H         38.03830        41.68835         0.38331
H         40.55482        61.65726         1.81849
H         41.82940        35.37608         1.66444
H         40.56659        37.46785         1.22110
H         42.67648        62.58804        -0.02900
H         45.21076        31.98392         1.70035
H         43.07285        33.24241         1.85960
H         45.14351        62.56412         0.13897
H         47.36527        33.16944         1.31959
H         48.63934        35.31339         1.17313
H         47.56648        62.49167         0.43009
H         49.89176        37.44547         0.83737
H         51.10264        39.52537         0.46838
H         50.00559        62.39258         0.73546
H         52.35886        41.64881         0.40338
H         53.64525        43.88570         0.18573
H         52.40710        62.30615         1.04732
H         54.85348        46.02652        -0.07355
H         56.04400        48.15799        -0.03621
H         54.73465        62.17598         1.64352
H         57.28380        50.40568         0.22392
H         58.55948        52.38834        -0.60133
H         57.15708        62.07055         2.24107
H         59.77006        54.49171        -0.15797
H         60.73015        56.38304         1.05467
H         59.44406        61.84636         3.08422
H         61.64011        58.17639         2.44539
H         61.47064        60.44974         3.45524
