         324
 CSIRO Nanostructure Databank - Neutral Graphene Oxide Data Set
C          1.30932         1.97945         1.28764
C          1.21821         3.37641         0.96233
C          2.47236         1.28552         1.16548
C          2.29824         4.10522         0.53803
C          1.10333         6.37831         0.85500
C          1.13225         7.74426         0.86846
C          2.25246         5.58146         0.37668
C          2.31430         8.50404         0.58108
C          1.14611        10.69004         0.67464
C          1.12861        12.07837         0.63920
C          2.32252         9.91058         0.44873
C          2.26258        12.82771         0.27336
C          1.08408        15.03233         0.26326
C          1.10064        16.41598         0.22918
C          2.28119        14.26589         0.20057
C          2.32041        17.13735         0.19111
C          2.35821        18.56851         0.15972
C          3.64549         1.89263         0.53230
C          3.56315         3.41878         0.20211
C          4.96983         1.31431         0.72595
C          4.84175         4.16155         0.17125
C          3.54645         6.31835         0.17312
C          3.62001         7.75454         0.66190
C          4.83768         5.57477         0.16436
C          4.81721         8.48246         0.10461
C          3.54449        10.60253         0.07207
C          3.46017        12.06985        -0.13653
C          4.74661         9.90188        -0.10639
C          4.76337        12.86056        -0.26228
C          3.52555        14.98298         0.13096
C          3.54658        16.40953         0.18486
C          4.77086        14.29019         0.10629
C          4.78901        17.11453         0.20963
C          3.54968        19.24739         0.12603
C          4.80494        18.54910         0.16051
C          6.12773         2.02230         0.41384
C          6.06941         3.45435         0.16399
C          7.39749         1.36949         0.42911
C          7.29102         4.17569         0.01385
C          6.03843         6.30982         0.05447
C          6.00972         7.76460        -0.03536
C          7.27121         5.59945        -0.06952
C          7.27303         8.46658        -0.16550
C          6.02575        10.59837        -0.37589
C          6.05234        12.10961        -0.32566
C          7.29530         9.88173        -0.14712
C          7.25215        12.74064         0.29810
C          5.97541        14.97667         0.30786
C          6.01257        16.40199         0.32429
C          7.20577        14.21618         0.60925
C          7.26254        17.10947         0.36602
C          6.03124        19.22709         0.13273
C          7.26848        18.53299         0.20603
C          8.58793         2.04517         0.12908
C          8.53767         3.47980        -0.07460
C          9.83429         1.35756         0.07127
C          9.71646         4.18911        -0.40620
C          8.50140         6.30732        -0.26962
C          8.47960         7.73076        -0.23486
C          9.70893         5.58856        -0.51488
C          9.75175         8.44950        -0.13850
C          8.53418        10.61687        -0.13953
C          8.55156        12.05824         0.10472
C          9.74048         9.91005        -0.17324
C          9.72917        12.75344         0.29259
C          8.49188        14.96259         0.81614
C          8.50579        16.42454         0.52530
C          9.78671        14.16650         0.75816
C          9.70760        17.12649         0.38694
C          8.50866        19.22516         0.11546
C          9.72833        18.54230         0.14918
C         11.02743         1.99645        -0.32087
C         10.93922         3.41552        -0.73836
C         12.26939         1.34687        -0.36608
C         12.24623         4.17201        -0.93724
C         10.92320         6.32856        -1.04870
C         11.03505         7.71574        -0.44168
C         12.23087         5.61883        -0.85643
C         12.29073         8.48543        -0.65272
C         11.00387        10.61585        -0.36283
C         10.98786        12.11083        -0.12195
C         12.29083         9.87685        -0.40747
C         12.28339        12.77173         0.20472
C         11.07040        14.94151         0.59644
C         11.01589        16.44023         0.46832
C         12.30410        14.24179         0.17954
C         12.17386        17.08150        -0.29952
C         10.99408        19.24161        -0.00847
C         12.20765        18.59352        -0.14549
C         13.50712         2.03779        -0.59590
C         13.51256         3.45080        -0.77839
C         14.74471         1.35104        -0.54560
C         14.73732         4.17848        -0.81447
C         13.48211         6.34462        -1.28718
C         13.49172         7.80142        -0.88839
C         14.75821         5.61060        -0.93722
C         14.72455         8.50444        -0.88649
C         13.51042        10.58559        -0.42258
C         13.55364        12.01508        -0.02116
C         14.71330         9.91462        -0.67265
C         14.78277        12.80446        -0.24970
C         13.49603        14.91676        -0.01085
C         13.48752        16.40508         0.07750
C         14.72501        14.21065        -0.20356
C         14.73361        17.17800        -0.14421
C         13.45543        19.28940        -0.33019
C         14.68510        18.63846        -0.40970
C         15.97846         2.03337        -0.68000
C         15.95850         3.45364        -0.80428
C         17.22817         1.32717        -0.61033
C         17.21016         4.18750        -1.02217
C         15.96915         6.34255        -0.84891
C         15.95674         7.76493        -0.89242
C         17.24117         5.64166        -0.78180
C         17.20084         8.49933        -0.61450
C         15.95372        10.69898        -0.84756
C         15.99133        12.13586        -0.52508
C         17.24886         9.95140        -0.95547
C         17.25006        12.81732        -0.37283
C         15.96167        14.94621        -0.52998
C         15.96625        16.44854        -0.55224
C         17.25179        14.26317        -0.32515
C         17.24111        17.17676        -0.48161
C         15.95166        19.27872        -0.59529
C         17.17540        18.59500        -0.57594
C         18.47343         1.96840        -0.66314
C         18.51656         3.41930        -0.95358
C         19.70938         1.30290        -0.51385
C         19.74620         4.17024        -0.65686
C         18.46380         6.28587        -0.62261
C         18.49770         7.74234        -0.40902
C         19.72780         5.58256        -0.59372
C         19.79023         8.44758        -0.45637
C         18.53275        10.69628        -0.74788
C         18.45930        12.10866        -0.33230
C         19.79779         9.92465        -0.52312
C         19.67973        12.78334         0.10551
C         18.42407        15.00693        -0.24867
C         18.45227        16.44579        -0.40325
C         19.67272        14.32024         0.11640
C         19.70898        17.12781        -0.38870
C         18.46483        19.35838        -0.79839
C         19.73570        18.54565        -0.59992
C         20.94758         2.00515        -0.54028
C         20.95122         3.45065        -0.52560
C         22.18744         1.33279        -0.54384
C         22.18274         4.16655        -0.45777
C         20.95953         6.29471        -0.40694
C         20.97859         7.74714        -0.33852
C         22.18022         5.59717        -0.36704
C         22.23690         8.42395        -0.08271
C         20.96686        10.63390         0.07286
C         20.99185        12.11616        -0.00969
C         22.23537         9.87440         0.23767
C         22.17104        12.80937         0.02048
C         20.96369        15.00008        -0.02403
C         20.94602        16.41083        -0.21133
C         22.17756        14.26982         0.04201
C         22.18662        17.10674        -0.16649
C         20.94686        19.19879        -0.68637
C         22.19866        18.53135        -0.45293
C         23.40978         2.04017        -0.61432
C         23.40016         3.46037        -0.57490
C         24.67103         1.34708        -0.58624
C         24.63589         4.22598        -0.80014
C         23.44050         6.30857        -0.22262
C         23.42569         7.73877         0.02601
C         24.64214         5.65617        -0.43673
C         24.61584         8.45429         0.66961
C         23.51488        10.61739         0.15114
C         23.47751        12.07663        -0.26365
C         24.69421         9.92659         0.25371
C         24.70261        12.83083         0.20201
C         23.41813        14.97003         0.13352
C         23.38499        16.39377         0.09252
C         24.65967        14.20782         0.32127
C         24.60116        17.18854         0.33671
C         23.39018        19.23180        -0.55536
C         24.63066        18.66256        -0.02681
C         25.88564         2.00504        -0.60856
C         25.93989         3.45507        -0.91742
C         27.08662         1.31330        -0.21665
C         27.24108         4.19503        -0.74785
C         25.90882         6.42630        -0.38294
C         25.97615         7.65558         0.53248
C         27.22222         5.68820        -0.53650
C         27.21246         8.48866         0.23006
C         25.96159        10.63653         0.21248
C         25.95070        12.06237         0.25398
C         27.21001         9.91684         0.24358
C         27.18122        12.74606         0.22333
C         25.91268        14.95470         0.63589
C         25.88828        16.45113         0.54839
C         27.25592        14.20049         0.63547
C         27.12017        17.19099         0.12863
C         25.93719        19.38496        -0.33985
C         27.16592        18.68512         0.19641
C         28.27128         1.96129         0.03615
C         28.41472         3.41321        -0.24014
C         29.41760         1.27145         0.57554
C         29.54337         4.13366         0.38082
C         28.42716         6.33587         0.02205
C         28.43866         7.75409         0.18038
C         29.56644         5.56025         0.38261
C         29.69056         8.42160         0.42019
C         28.45604        10.63947         0.18295
C         28.40788        12.04736         0.07678
C         29.72681         9.89917         0.48997
C         29.49577        12.87101        -0.55432
C         28.42773        14.97140         0.04288
C         28.38162        16.44380        -0.08424
C         29.60415        14.32397        -0.19520
C         29.66283        17.22819        -0.08068
C         28.34307        19.31894         0.37232
C         29.59699        18.53468         0.70520
C         30.53458         1.94701         0.96672
C         30.61200         3.39341         0.90898
C         31.75373         4.07963         1.40045
C         30.75826         6.22291         0.80120
C         30.84343         7.65466         0.66986
C         31.83521         5.45557         1.31433
C         32.15175         8.25641         0.63882
C         31.17061        10.51629         0.58061
C         31.60299        11.90795         0.25645
C         32.30570         9.58873         0.47051
C         31.52897        12.94303         1.12662
C         30.90554        15.00762        -0.02511
C         30.97520        16.49231        -0.13699
C         31.83434        14.32206         0.69576
C         32.16384        17.24466         0.28844
C         30.87933        19.30399         0.61012
C         32.08418        18.62424         0.50755
O         30.34761        10.36692         1.75599
O         30.36383        17.15826        -1.33191
O         11.40228         3.65986        -2.10198
O         27.49716        16.79554        -1.25081
O         24.46853        18.23408         1.36730
O         17.92282         3.77266        -2.24804
O          3.43015         2.40461        -0.82726
O         11.34405        15.84332         1.74181
O         21.36705        10.17760         1.40336
O          3.94985        12.57146        -1.43221
O         19.53477        13.54214         1.35061
O         16.57244        10.34567        -2.16772
O         10.61644         7.82699         0.94202
O         29.96513        12.45961        -1.61955
O          2.70748         6.04674        -0.97185
O         25.85957        15.79885         1.85333
O          9.15231        14.49810         2.02879
O          6.96548        13.19931         1.65496
O         28.26779         3.74831        -1.68342
O         26.63577         6.48832        -1.63510
O         25.23494         3.87749        -2.11529
O         11.95545        16.80860        -1.66251
O         19.48552        10.45708        -1.86353
O         17.69185         8.22244         0.74865
O         14.24478        16.88813         1.22751
O          6.20759        11.44074        -1.59549
O         10.93756        11.59560        -1.48737
O         15.83685        15.69316        -1.80878
O         13.00250        12.19110         1.34798
O         24.21933         8.42969         2.02060
O         26.25239         7.09370         1.83879
H         25.53668         7.49824         2.42658
O         18.50452        20.53626         0.01945
H         18.50945        20.25898         0.95847
O          3.89396         7.61302         2.10775
H          3.97250         8.51348         2.48836
O         13.44492         6.35403        -2.76625
H         12.54945         6.68672        -3.02358
O         32.28434        12.05661        -0.91837
H         31.98296        11.40085        -1.57803
O         29.45664        18.08179         2.09936
H         29.47071        18.87305         2.67812
O         10.70168         6.51902        -2.49737
H         10.66131         5.61150        -2.88186
O         23.57820        12.04417        -1.73401
H         23.56596        12.96983        -2.05807
O         27.66107        14.07141         2.03677
H         27.19375        14.78145         2.54136
O         26.08278        19.45581        -1.76990
H         26.57855        18.66185        -2.06984
H          0.42784         1.49651         1.73220
H          0.26106         3.87803         1.16152
H          2.56238         0.26489         1.56546
H          0.16688         5.86249         1.10957
H          0.19883         8.27475         1.10615
H          0.21564        10.17769         0.95224
H          0.19507        12.59411         0.90420
H          0.11477        14.51647         0.30383
H          0.15194        16.97186         0.24251
H          1.40729        19.12098         0.15160
H          5.04751         0.28379         1.10468
H          3.55909        20.34647         0.08925
H          7.42813         0.28748         0.62581
H          6.03975        20.32430         0.04961
H          9.85690         0.28557         0.31798
H          8.49795        20.31729        -0.01763
H         12.31303         0.27373        -0.12649
H         10.96014        20.34317        -0.03445
H         14.74750         0.26018        -0.40346
H         13.43053        20.39035        -0.38741
H         17.19774         0.23763        -0.45766
H         15.97412        20.37039        -0.73619
H         19.72092         0.20828        -0.40072
H         18.45966        19.72546        -1.86329
H         22.20463         0.23282        -0.54180
H         20.96161        20.28165        -0.87817
H         24.65876         0.25973        -0.41575
H         23.39599        20.26238        -0.93871
H         27.01228         0.23309        -0.01843
H         25.87866        20.43498         0.04692
H         29.36418         0.17800         0.68085
H         28.39718        20.41715         0.30331
H         31.39525         1.40011         1.37792
H         32.58542         3.50212         1.82826
H         32.73651         5.95951         1.68770
H         33.03503         7.60486         0.60782
H         33.29752        10.01737         0.26879
H         31.06735        12.78708         2.11370
H         32.75055        14.81892         1.05720
H         33.14563        16.75086         0.29879
H         30.86887        20.39027         0.78217
H         33.02139        19.19038         0.62005
