         244
 CSIRO Nanostructure Databank - Neutral Graphene Oxide Data Set
C          1.35770         2.03966         1.24143
C          1.28826         3.42247         1.27982
C          2.55226         1.32747         1.03853
C          2.50206         4.23536         1.29277
C          1.35283         6.41459         0.76358
C          1.35764         7.80654         0.63336
C          2.51428         5.69222         1.03802
C          2.56183         8.57081         0.65069
C          1.35374        10.76515         0.41881
C          1.35146        12.11216         0.53757
C          2.57140         9.99790         0.55096
C          2.58637        12.86539         0.95566
C          1.42439        15.11712         1.03902
C          1.46477        16.46093         1.01047
C          2.56044        14.31407         0.44206
C          2.62943        17.17673         0.49239
C          2.56555        18.55933         0.25177
C          3.78244         1.99906         0.79445
C          3.81227         3.47145         1.02754
C          4.95200         1.33337         0.46172
C          4.95580         4.24649         0.38965
C          3.78312         6.43895         1.09396
C          3.79983         7.87472         0.78307
C          5.08960         5.67610         0.88653
C          5.02888         8.55113         0.55790
C          3.81958        10.70082         0.53200
C          3.85459        12.13514         0.57121
C          5.02364         9.95534         0.41442
C          5.03088        12.86122         0.22246
C          3.90985        15.03143         0.69565
C          3.83019        16.47363         0.24777
C          5.03873        14.24338         0.07953
C          4.97393        17.15483        -0.20969
C          3.70752        19.24442        -0.15889
C          4.90719        18.55921        -0.37455
C          6.20476         2.05725         0.04822
C          6.25296         3.46426         0.66411
C          7.50526         1.34205         0.30194
C          7.49116         4.21206         0.22168
C          6.28942         6.41004         0.43363
C          6.27434         7.81114         0.36804
C          7.46420         5.66411         0.11742
C          7.44815         8.50672        -0.08447
C          6.32999        10.70794         0.41625
C          6.23156        12.07961        -0.26849
C          7.46845         9.92264        -0.17568
C          7.57468        12.84438        -0.14080
C          6.11117        14.91613        -0.74708
C          6.19478        16.42438        -0.57058
C          7.46917        14.25554        -0.67589
C          7.30355        17.07512        -1.02810
C          6.16125        19.34684        -0.64158
C          7.25101        18.55255        -1.37431
C          8.69838         2.05463         0.20730
C          8.66196         3.51480         0.09019
C          9.95999         1.39886         0.13994
C          9.95374         4.29779         0.02016
C          8.61029         6.34331        -0.32423
C          8.60561         7.74247        -0.44822
C          9.78977         5.54818        -0.83763
C          9.73044         8.39678        -1.06506
C          8.53271        10.58821        -0.83875
C          8.66762        12.03389        -0.83938
C          9.48576         9.72027        -1.46174
C          9.84842        12.74862        -1.14361
C          8.57545        14.90933        -1.12271
C          8.42656        16.30000        -1.72163
C          9.85221        14.20297        -1.15280
C          9.80788        17.14939        -1.87990
C          8.57847        19.18952        -1.07712
C          9.75821        18.50722        -1.17712
C         11.16235         2.08034        -0.19475
C         11.15702         3.49509        -0.38046
C         12.38006         1.37247        -0.38049
C         12.32755         4.19989        -0.72414
C         11.07357         6.35183        -0.94894
C         11.01268         7.72175        -1.20818
C         12.30986         5.62860        -0.93588
C         12.31614         8.44787        -1.63484
C         11.32205        10.74504        -1.70944
C         11.13569        12.12499        -1.32101
C         12.34603         9.93499        -1.32822
C         12.30402        12.83692        -1.08161
C         11.04653        14.91479        -1.21716
C         11.17050        16.38792        -1.56988
C         12.29903        14.24846        -1.02262
C         12.06379        17.01301        -0.46303
C         10.95896        19.19268        -0.80571
C         12.14681        18.51751        -0.53657
C         13.58224         2.04430        -0.66916
C         13.56395         3.48165        -0.81861
C         14.81736         1.33607        -0.73304
C         14.77082         4.19516        -0.98793
C         13.55256         6.34017        -1.01625
C         13.56474         7.75369        -1.11211
C         14.78942         5.61318        -0.95108
C         14.77613         8.46764        -0.84396
C         13.50679        10.62945        -0.65541
C         13.57014        12.07670        -1.11461
C         14.81365         9.89195        -0.77756
C         14.84085        12.83775        -0.98230
C         13.51359        14.96212        -0.75152
C         13.43515        16.35515        -0.47378
C         14.77192        14.27943        -0.63857
C         14.58386        17.06032        -0.11105
C         13.32280        19.19193        -0.17759
C         14.53678        18.49952         0.09060
C         16.04319         1.99230        -0.93689
C         16.01637         3.44606        -1.17097
C         17.28919         1.33658        -0.87030
C         17.34278         4.22135        -0.96002
C         16.02232         6.32043        -0.72000
C         15.99319         7.75778        -0.56747
C         17.22419         5.61615        -0.55881
C         17.16323         8.46956        -0.20384
C         16.01718        10.58459        -0.57229
C         16.08706        12.05778        -0.70815
C         17.21247         9.88243        -0.24394
C         17.27546        12.78266        -0.14873
C         15.89745        14.93973        -0.13320
C         15.82803        16.36342         0.11364
C         17.14525        14.23402         0.16114
C         16.95142        17.06959         0.55200
C         15.69481        19.18944         0.45769
C         16.93593        18.50862         0.65095
C         18.51587         2.03977        -0.68886
C         18.53277         3.45284        -0.57725
C         19.74447         1.33020        -0.47261
C         19.69765         4.13892        -0.13176
C         18.36480         6.23132         0.12000
C         18.33156         7.73775         0.31363
C         19.66768         5.54134         0.14146
C         19.61406         8.43875         0.51533
C         18.38823        10.59397         0.25017
C         18.34895        11.96599         0.44840
C         19.60048         9.85242         0.59678
C         19.46244        12.65918         1.11957
C         18.20733        14.89039         0.71415
C         18.15033        16.33870         1.09376
C         19.42361        14.18225         1.19598
C         19.46054        17.03095         0.74336
C         18.12261        19.21615         0.87648
C         19.42451        18.55892         0.72389
C         20.90029         1.99288        -0.13876
C         20.90685         3.40787         0.06264
C         22.06806         4.11798         0.46054
C         20.82932         6.23378         0.52495
C         20.80308         7.69197         0.71415
C         22.03460         5.48423         0.66421
C         21.97946         8.41061         1.02913
C         20.79012        10.54385         0.96749
C         20.76579        11.98084         1.18989
C         21.96745         9.78897         1.16946
C         21.87917        12.74275         1.50366
C         20.70559        14.90644         1.29914
C         20.72867        16.35091         1.09157
C         21.84880        14.16254         1.54978
C         21.87521        17.11525         1.17911
C         20.67696        19.24967         1.03239
C         21.83873        18.54776         1.16689
O          4.68124         6.02230         2.22104
O         14.32958        12.42071        -2.30738
O         16.82550         3.90554        -2.29139
O         10.28525        10.21407        -2.49821
O          7.86143        16.10862        -3.02389
O         17.99957         6.83161         1.42390
O         17.16903        12.49613        -1.59787
O         19.09663        13.35418         2.37901
O          3.46352         3.83485         2.36019
O         19.47804        17.72261        -0.52056
O          6.96952        18.61430        -2.79757
H          7.24301        17.72397        -3.17442
O          6.13286         2.22139        -1.42414
H          6.15820         1.32687        -1.82498
O         13.23860        10.71519         0.78466
H         13.20656         9.80254         1.14182
O          5.70795        14.70277        -2.15258
H          6.42225        15.18519        -2.68743
O         18.05035        16.38743         2.56192
H         18.20613        15.48433         2.91483
O          2.35408        14.22091        -0.98277
H          2.42161        15.12300        -1.36138
O          6.02319        11.83918        -1.67775
H          5.85708        12.72054        -2.10177
O          9.85355        17.51691        -3.26959
H          9.09959        17.00457        -3.69390
O          2.56512        12.92945         2.42648
H          2.59725        12.00897         2.76420
O          7.98492        13.01863         1.23872
H          7.74312        12.20842         1.74854
O         10.22436         4.76275         1.38044
H         10.24269         3.97731         1.96693
O          6.59627        10.89559         1.85224
H          6.72563        10.00618         2.24573
O         11.43390        16.69002         0.80811
H         11.99020        17.05286         1.52856
O          4.17850        15.08347         2.12435
H          3.74605        14.30437         2.55084
O         11.98139        16.41467        -2.75781
H         11.41323        16.81072        -3.46997
O          9.45771         5.09670        -2.17887
H          9.40728         5.88320        -2.76130
O         12.35707         8.30230        -3.09060
H         11.64410         8.87707        -3.45078
O          4.69299         4.38869        -1.02004
H          5.09183         3.61779        -1.49810
O          5.88995        20.53773        -1.37914
H          5.98466        20.29465        -2.32826
O          6.34399         3.28007         2.09252
H          6.00484         4.08302         2.54463
H          0.41994         1.46875         1.30769
H          0.30659         3.91572         1.27575
H          2.52094         0.23195         0.95883
H          0.38941         5.88894         0.70413
H          0.39565         8.31462         0.48850
H          0.41452        10.24320         0.18747
H          0.41618        12.67456         0.40767
H          0.53800        14.59132         1.42349
H          0.61528        17.05667         1.37791
H          1.62422        19.09971         0.42739
H          4.93950         0.23276         0.40752
H          3.68412        20.33237        -0.31151
H          7.52308         0.24191         0.34470
H          6.56863        19.65647         0.36519
H          9.99031         0.30384         0.24423
H          8.58783        20.21463        -0.66978
H         12.39055         0.28011        -0.25161
H         10.91967        20.28836        -0.68785
H         14.81171         0.24916        -0.56218
H         13.31802        20.29258        -0.13378
H         17.30505         0.23822        -0.80277
H         15.66524        20.28536         0.55420
H         19.74790         0.23611        -0.58332
H         18.09125        20.30578         1.02716
H         21.83593         1.43328         0.00581
H         23.00842         3.56714         0.60718
H         22.96226         5.98952         0.96355
H         22.92656         7.87980         1.19088
H         22.89954        10.29717         1.45086
H         22.85683        12.25854         1.63496
H         22.80817        14.67814         1.69682
H         22.84476        16.63562         1.37385
H         20.66093        20.34009         1.17532
H         22.77834        19.08544         1.35828
