         429
 CSIRO Nanostructure Databank - Neutral Graphene Oxide Data Set
C          1.20314         1.98561         1.80251
C          1.09450         2.93973         0.76767
C          2.44920         1.64065         2.28065
C          2.22647         3.62233         0.33762
C          1.20922         6.39950        -1.43164
C          1.23894         7.77460        -1.54076
C          2.28485         5.71246        -0.84561
C          2.36830         8.49948        -1.10727
C          1.41688        10.58763        -2.15333
C          1.54120        11.91524        -2.50671
C          2.41229         9.94250        -1.37393
C          2.70995        12.65722        -2.20336
C          1.83793        14.71010        -3.33274
C          1.97829        16.01363        -3.77924
C          2.89689        14.00270        -2.68676
C          3.22536        16.66840        -3.71488
C          3.40176        18.01462        -4.11537
C          3.62439         2.28953         1.79279
C          3.51257         3.40915         0.89839
C          4.89551         1.77739         2.10428
C          4.68438         4.16518         0.52754
C          3.43781         6.37625        -0.37539
C          3.47241         7.79316        -0.55112
C          4.61485         5.65519         0.23427
C          4.61818         8.57775         0.00742
C          3.50366        10.71350        -0.94504
C          3.74110        12.03591        -1.44053
C          4.50267        10.10427        -0.06282
C          4.97880        12.74121        -1.19788
C          4.15898        14.62465        -2.51970
C          4.37293        15.90860        -3.20327
C          5.19811        14.02809        -1.75161
C          5.65269        16.67971        -2.88630
C          4.55355        18.72333        -3.81585
C          5.63379        18.14086        -3.09118
C          6.04251         2.33229         1.50723
C          5.92790         3.58192         0.79459
C          7.29316         1.68174         1.63812
C          7.18262         4.18880         0.30087
C          5.91432         6.42256         0.24936
C          5.98144         7.88844        -0.16608
C          7.19945         5.67364         0.01137
C          7.28983         8.51089         0.34922
C          5.62433        10.97457         0.28207
C          5.96793        12.15189        -0.32373
C          7.43390         9.84937         0.74711
C          7.14575        12.95381         0.23273
C          6.43925        14.75309        -1.44685
C          6.59829        16.09047        -1.92334
C          7.45038        14.18784        -0.62507
C          7.68104        16.88975        -1.51150
C          6.67275        18.90243        -2.57412
C          7.74720        18.29711        -1.85500
C          8.49657         2.25011         1.15384
C          8.47563         3.54813         0.56806
C          9.73582         1.57524         1.28381
C          9.68366         4.20533         0.24542
C          8.49791         6.37242        -0.03557
C          8.50412         7.82228         0.07416
C          9.68898         5.63881        -0.05228
C          9.72457         8.53556         0.03012
C          8.57182        10.63077         0.51597
C          8.45332        12.13193         0.60267
C          9.77000         9.94387         0.18104
C          9.75898        12.86165         0.58630
C          8.66010        14.91222        -0.39710
C          8.75949        16.28496        -0.80665
C          9.82708        14.28829         0.16357
C          9.93435        17.04414        -0.55257
C          8.85747        19.05355        -1.47537
C          9.98683        18.44411        -0.86597
C         10.92422         2.16858         0.86024
C         10.90730         3.49371         0.36791
C         12.19598         1.35153         1.03710
C         12.18949         4.13213        -0.10553
C         10.95829         6.33090        -0.13200
C         10.94776         7.81004        -0.45838
C         12.16100         5.64986        -0.05272
C         12.24496         8.52413        -0.17239
C         11.04126        10.64384         0.16044
C         11.04056        12.06249         0.59299
C         12.24389         9.96358        -0.02103
C         12.33291        12.81539         0.57880
C         11.04578        14.97979         0.24974
C         11.09999        16.40154        -0.04286
C         12.29933        14.29136         0.46118
C         12.28692        17.13582         0.10019
C         11.16714        19.17748        -0.61791
C         12.33680        18.53581        -0.16664
C         13.45021         2.06209         0.58652
C         13.38240         3.56766         0.67411
C         14.56914         1.39391         0.25371
C         14.66670         4.25121         0.31233
C         13.41450         6.36365        -0.04642
C         13.42353         7.79875        -0.16626
C         14.63873         5.68734         0.18970
C         14.73410         8.48390        -0.47200
C         13.53258        10.66570         0.00228
C         13.57683        12.11313         0.19411
C         14.70447         9.96930        -0.19161
C         14.74632        12.83946         0.12723
C         13.50550        14.97340         0.42744
C         13.53838        16.47091         0.61219
C         14.74961        14.26880         0.35246
C         14.76968        17.09694        -0.04265
C         13.57316        19.25884         0.00692
C         14.79206        18.59628         0.15261
C         15.82458         2.09203        -0.21006
C         15.85514         3.54201         0.21141
C         17.11346         1.37859         0.08871
C         17.10545         4.21011         0.38540
C         15.86966         6.39850         0.31750
C         15.94336         7.77719         0.11842
C         17.04387         5.63022         0.87278
C         17.16758         8.46627         0.34995
C         15.99999        10.67616        -0.33058
C         16.03480        12.20983        -0.35755
C         17.25587         9.89860        -0.02605
C         17.21986        12.78294         0.42371
C         15.96472        14.98547         0.47318
C         16.02716        16.39357         0.40080
C         17.19771        14.24094         0.76656
C         17.23554        17.08776         0.56070
C         16.03017        19.24733         0.32468
C         17.25156        18.53636         0.48629
C         18.31031         2.06695         0.22614
C         18.31449         3.51929         0.39403
C         19.56453         1.38351         0.25193
C         19.56560         4.20886         0.63772
C         18.35295         6.34899         0.75489
C         18.34332         7.75441         0.69698
C         19.57129         5.62953         0.82242
C         19.56764         8.46077         1.13450
C         18.54209        10.63731         0.24534
C         18.55413        12.12951         0.34327
C         19.63147         9.95142         0.98607
C         19.72105        12.82161         0.92808
C         18.47582        14.96386         0.87113
C         18.47313        16.37271         0.79136
C         19.69205        14.23289         1.02097
C         19.70541        17.08800         0.87962
C         18.48394        19.21153         0.60559
C         19.71062        18.52072         0.77686
C         20.78349         2.06833         0.37817
C         20.79005         3.50534         0.59669
C         22.01617         1.38273         0.27527
C         22.03394         4.19061         0.74817
C         20.82290         6.32324         1.01309
C         20.84007         7.72101         1.24139
C         22.05229         5.60584         0.99796
C         22.04278         8.40397         1.52971
C         20.89851        10.66792         1.19397
C         20.91570        12.07123         1.18610
C         22.00706         9.88107         1.75759
C         22.15692        12.78853         1.42929
C         20.92939        14.95347         1.16253
C         20.93330        16.37898         1.05385
C         22.14714        14.24481         1.30815
C         22.16874        17.09033         1.07255
C         20.94922        19.21192         0.84377
C         22.17055        18.53078         0.97448
C         23.25255         2.05844         0.35528
C         23.26385         3.48579         0.62551
C         24.46529         1.37300         0.16713
C         24.49384         4.17692         0.71373
C         23.27808         6.30048         1.22157
C         23.26229         7.68222         1.55480
C         24.53063         5.58351         1.02185
C         24.53939         8.35382         1.93290
C         23.30565        10.64927         2.03166
C         23.32280        12.08580         1.70281
C         24.59549         9.86638         2.10283
C         24.60415        12.81034         1.82689
C         23.36054        14.96866         1.28859
C         23.39333        16.37669         1.15797
C         24.61784        14.20744         1.29447
C         24.65769        17.10049         1.19548
C         23.41718        19.22621         1.00286
C         24.64063        18.56084         1.12217
C         25.72376         2.03555         0.23297
C         25.72866         3.48461         0.47877
C         26.91194         1.33077         0.10287
C         26.91559         4.20177         0.37327
C         25.75335         6.26174         1.05073
C         25.81668         7.62961         1.60691
C         26.97871         5.62365         0.61768
C         27.07355         8.42391         1.41999
C         25.88632        10.57459         1.84621
C         25.90712        12.06295         1.94870
C         27.03510         9.90790         1.53574
C         27.15905        12.78208         1.57806
C         25.90746        14.96580         1.27282
C         25.85982        16.43675         1.32272
C         27.17398        14.28845         1.76178
C         27.12705        17.17897         1.68428
C         25.88061        19.26478         1.08349
C         27.11622        18.62001         1.23217
C         28.23292         2.01290         0.32714
C         28.11454         3.46766        -0.08230
C         29.40733         1.34263        -0.32963
C         29.37395         4.23029        -0.38333
C         28.16789         6.34280         0.44468
C         28.15913         7.85803         0.52090
C         29.35907         5.75463        -0.30482
C         29.50518         8.44424         0.94276
C         28.36908        10.62745         1.65123
C         28.29843        12.09830         1.31779
C         29.58159         9.91235         1.08505
C         29.57469        12.80047         1.03321
C         28.33697        14.96591         1.02864
C         28.39007        16.44381         1.29680
C         29.64309        14.26084         1.22188
C         29.58352        17.11404         1.17012
C         28.34984        19.27518         1.08474
C         29.58913        18.57593         1.10592
C         30.60861         2.04620        -0.50250
C         30.62103         3.46795        -0.32930
C         31.83170         1.40296        -0.91992
C         31.87505         4.16403        -0.12806
C         30.70902         6.33575         0.08106
C         30.77418         7.73020         0.57934
C         31.86775         5.63866        -0.06462
C         32.00958         8.51390         0.44646
C         30.79722        10.54979         1.04628
C         30.84858        12.03567         0.99074
C         32.04196         9.86204         0.74619
C         32.12468        12.73562         1.41599
C         30.84667        14.93777         1.13298
C         30.83852        16.38747         1.04416
C         32.10964        14.21812         1.07134
C         32.03682        17.07710         0.86851
C         30.80770        19.23483         0.91433
C         32.03567        18.52559         0.78746
C         33.05522         2.07542        -1.01241
C         33.18008         3.43216        -0.43553
C         34.20114         1.51837        -1.62326
C         34.40923         4.23397        -0.66047
C         33.15808         6.34615        -0.25037
C         33.20970         7.83723        -0.07139
C         34.42007         5.58635        -0.35428
C         34.50566         8.52933         0.08238
C         33.30354        10.60610         0.70662
C         33.35388        11.98586         0.94843
C         34.51995         9.87670         0.42571
C         34.59382        12.71192         0.82081
C         33.28730        14.89980         0.83773
C         33.28315        16.35677         0.73050
C         34.56459        14.18191         0.76723
C         34.46126        17.06500         0.52664
C         33.24149        19.20337         0.56876
C         34.47065        18.50569         0.44075
C         35.41173         2.24304        -1.77354
C         35.54714         3.58739        -1.26304
C         36.49497         1.68260        -2.49136
C         36.72943         4.31548        -1.51228
C         35.67736         6.34367        -0.31318
C         35.71114         7.81033        -0.19866
C         36.91815         5.64761        -0.92290
C         36.94401         8.50113        -0.35566
C         35.85480        10.52619         0.69364
C         35.78660        12.02415         0.58857
C         37.00273         9.90055        -0.07341
C         37.00807        12.72824         0.32645
C         35.73386        14.88767         0.62666
C         35.73950        16.33676         0.21844
C         37.02701        14.16993         0.66255
C         36.97055        17.12399         0.62898
C         35.68096        19.20960         0.24895
C         36.94550        18.57171         0.30491
C         37.65279         2.42262        -2.77645
C         37.77330         3.76788        -2.30077
C         38.72586         1.85966        -3.55000
C         38.93919         4.54724        -2.61134
C         38.02896         6.50526        -1.36336
C         38.07986         7.83609        -0.96269
C         39.06958         5.90009        -2.17402
C         39.39731         8.56870        -1.04665
C         38.15454        10.67350        -0.40900
C         38.13802        12.11212        -0.17312
C         39.28483        10.07402        -1.00040
C         39.25963        13.00908        -0.66307
C         38.32533        14.90470         0.71841
C         38.29882        16.41591         0.70971
C         39.60625        14.14715         0.33633
C         39.50111        17.16477         0.30417
C         38.15214        19.25856         0.23301
C         39.42031        18.58366         0.20311
C         39.83363         2.60102        -3.85427
C         39.96431         3.95999        -3.41180
C         41.08989         4.73517        -3.76791
C         40.20303         6.66681        -2.56210
C         40.31489         8.05095        -2.13380
C         41.19905         6.05587        -3.36335
C         41.33004         8.87938        -2.57473
C         40.42096        10.84753        -1.41081
C         40.50521        12.26447        -1.08937
C         41.42774        10.22719        -2.16133
C         41.65573        12.99592        -1.22703
C         40.69851        15.03606        -0.24703
C         40.69454        16.48800        -0.05053
C         41.69596        14.40537        -0.93937
C         41.84759        17.26013        -0.30908
C         40.60139        19.31928        -0.05848
C         41.80479        18.65671        -0.27169
O         32.70557         3.54479         0.93898
O         18.93868        11.44020        -0.90411
O         30.24952        12.46793        -0.27297
O         26.84756         7.72111         2.66835
O          5.52817        15.90323        -4.12023
O         25.37871        14.35995         0.04455
O          4.14896         9.31694         1.14869
O         25.25911        12.63752         3.14468
O          2.09712         4.34075        -0.85028
O          6.36560        10.51140         1.35960
O         24.59000         8.96544         3.25312
O          5.17725         6.27271         1.48438
O         36.69653         5.69153         0.52006
O         28.47233         3.73982        -1.47128
O         11.77921        12.28553         1.85044
O          7.05326         4.70403        -1.08461
O         19.20245         9.34800         2.26878
O         16.81585        10.11434        -1.43027
O         33.03455         7.26776        -1.43048
O          9.01360        12.65957         1.85277
O         30.22029         7.72195         1.98448
O         37.76106        14.37916         1.95926
O         37.59865        16.90003         1.91348
O         22.38355        10.31668         3.10673
O         16.95740        13.17467         1.79333
O         10.83304         7.86137        -1.94222
H         11.71028         7.61212        -2.30752
O         12.05786         0.08466         0.38354
H         12.05115         0.24186        -0.58306
O         28.48624         2.04378         1.78008
H         28.56957         1.11790         2.09069
O         29.19691         6.22121        -1.69868
H         28.67497         5.51609        -2.15540
O         16.78851         5.51994         2.33485
H         16.90721         6.41619         2.71743
O         15.74754         2.11200        -1.68677
H         16.51872         2.62239        -2.01328
O         12.38363         3.76195        -1.49790
H         11.62663         4.11044        -2.01373
O         35.84865        16.30308        -1.25463
H         35.02257        15.90896        -1.60733
O         28.63174        10.61363         3.09820
H         28.62017         9.67812         3.39878
O         27.31549        14.51426         3.18533
H         26.67349        13.91259         3.63815
O         16.20797        12.62279        -1.73210
H         16.79641        11.95257        -2.15367
O         14.63748        16.85569        -1.47247
H         15.41187        17.25446        -1.92102
O         40.15691        13.56911         1.52977
H         39.42189        13.51133         2.18662
O         36.15480        10.25137         2.12273
H         36.30828         9.28566         2.20780
O          6.13176         7.92783        -1.61636
H          6.90221         7.37321        -1.86848
O         38.73782        13.69067        -1.84805
H         38.61898        13.02235        -2.55494
O         27.86135         8.38305        -0.80341
H         28.35850         7.82062        -1.45264
O          6.65568        13.51284         1.47359
H          7.42491        13.54897         2.09372
O         14.85774         8.34389        -1.93245
H         15.66631         8.85529        -2.18500
O         13.12942         3.91386         2.06824
H         13.97207         3.82802         2.56255
O         32.12330        12.66049         2.87534
H         32.99463        12.97384         3.19813
O         13.63986        16.72613         2.03995
H         12.90497        16.25724         2.48803
O         27.15043        17.24542         3.15440
H         27.26522        16.31487         3.47853
O         40.08015         8.21341         0.22610
H         40.10440         7.23347         0.27768
O         28.02385        14.81036        -0.39487
H         28.85110        14.92719        -0.90756
H          0.30372         1.47014         2.16564
H          0.13075         3.12297         0.27589
H          2.56228         0.82551         3.00881
H          0.34033         5.82496        -1.77628
H          0.36812         8.28707        -1.96562
H          0.52435        10.04555        -2.48913
H          0.73661        12.37382        -3.09566
H          0.85355        14.23436        -3.42957
H          1.11264        16.54454        -4.20068
H          2.56094        18.53131        -4.60090
H          4.98764         0.89331         2.75108
H          4.61186        19.79227        -4.06763
H          7.33114         0.70790         2.14738
H          6.69592        19.98799        -2.75228
H          9.75660         0.56345         1.71320
H          8.89348        20.12464        -1.72364
H         12.29660         1.12884         2.13585
H         11.18980        20.25269        -0.84936
H         14.55372         0.29199         0.23290
H         13.54580        20.35935        -0.01439
H         17.13213         0.28118         0.00030
H         16.05410        20.34740         0.36793
H         19.57509         0.29111         0.11890
H         18.49780        20.31029         0.54626
H         22.01026         0.29790         0.09071
H         20.95091        20.30998         0.77209
H         24.44410         0.29012        -0.02695
H         23.40840        20.32418         0.92535
H         26.88477         0.24363        -0.06919
H         25.86116        20.34900         0.88990
H         29.39318         0.25088        -0.46768
H         28.36157        20.35579         0.87183
H         31.77409         0.35710        -1.25618
H         30.82241        20.33260         0.83638
H         34.14073         0.50261        -2.04168
H         33.24108        20.30201         0.50782
H         36.40763         0.65392        -2.87182
H         35.64280        20.30328         0.12958
H         38.63471         0.82202        -3.90229
H         38.14354        20.34931         0.08393
H         40.64457         2.16645        -4.45685
H         41.88268         4.28219        -4.38040
H         42.08935         6.62554        -3.66053
H         42.08361         8.51001        -3.28426
H         42.28188        10.81464        -2.52350
H         42.57986        12.52795        -1.59580
H         42.56399        14.96809        -1.31244
H         42.80357        16.76523        -0.52640
H         40.55434        20.41657        -0.10550
H         42.72252        19.23214        -0.45688
