         671
 CSIRO Nanostructure Databank - Neutral Graphene Oxide Data Set
C          5.90822        31.74741         0.08132
C          5.90003        33.09911         0.06181
C          8.39680        27.48647         0.87854
C          8.35491        28.87297         0.71027
C          7.12547        29.60467         0.52597
C          8.33853        31.73152         0.56210
C          7.10582        30.98566         0.43274
C          8.35904        33.12501         0.43315
C          7.06980        33.87547         0.63183
C          8.30678        35.98869        -0.09502
C          7.15652        35.34221         0.31498
C          8.36547        37.39969        -0.16030
C         10.88914        23.22897         1.64271
C         10.84970        24.62321         1.44187
C          9.65991        25.36407         1.42356
C         10.83669        27.48916         1.12115
C          9.63625        26.78196         1.13173
C         10.89067        28.88413         0.57598
C          9.58976        29.63147         0.72835
C         10.79754        31.82906         0.98879
C          9.57279        31.00639         0.68094
C         10.78686        33.16635         0.29676
C          9.58117        33.81901         0.14227
C         10.83499        35.92734        -0.76404
C          9.46689        35.12850        -0.63289
C         10.81324        37.37917        -0.31596
C          9.60460        38.12749        -0.17278
C         10.88354        40.29531         0.27559
C          9.62098        39.52977        -0.00530
C         10.89052        41.72980        -0.19197
C         13.46395        19.03418         1.63093
C         13.41239        20.36670         1.29145
C         12.18444        21.12073         1.50941
C         13.35462        23.29073         1.81738
C         12.12338        22.50884         1.66606
C         13.39424        24.64946         1.47953
C         12.12563        25.33795         1.01776
C         13.36889        27.53794         1.14572
C         12.10584        26.79239         1.53006
C         13.34983        29.02058         1.15946
C         12.11556        29.68571         0.95837
C         13.30820        31.80106         0.71854
C         12.09081        31.07720         0.85505
C         13.29721        33.18637         0.38441
C         12.04209        33.86100         0.11713
C         13.27874        35.97920         0.14626
C         12.04766        35.19510        -0.23933
C         13.37671        37.34705        -0.54805
C         12.06579        38.11309        -0.50231
C         13.40099        40.29983        -0.17347
C         12.08917        39.60284        -0.32363
C         13.34988        41.71658        -0.08024
C         12.10940        42.41977        -0.27337
C         13.36645        44.58371        -0.50804
C         12.17557        43.82923        -0.55640
C         13.33288        45.95850        -1.02849
C         15.81218        14.90787         0.23455
C         15.86934        16.19368         0.68992
C         14.67280        17.01675         0.77731
C         15.87670        18.53280         2.23559
C         14.64745        18.15226         1.54927
C         15.96158        20.57929         0.58639
C         14.51197        21.04527         0.47137
C         15.80780        23.24386         1.92195
C         14.55804        22.68512         2.27075
C         15.84218        24.62725         1.62589
C         14.62122        25.34236         1.54680
C         15.89431        27.55267         1.70543
C         14.65583        26.80639         1.30546
C         15.84931        29.07851         1.51690
C         14.55971        29.72628         1.14096
C         15.75091        31.75081         0.35241
C         14.54967        31.10161         0.79368
C         15.73704        33.07109        -0.03207
C         14.53394        33.84537         0.09518
C         15.81449        35.91566        -0.42731
C         14.57695        35.23576        -0.10330
C         15.84732        37.37389        -0.41693
C         14.59223        38.09587         0.03294
C         15.90450        40.25551        -0.01445
C         14.58220        39.57320        -0.23621
C         15.79455        41.71865        -0.37889
C         14.61057        42.46968         0.22757
C         15.88392        44.56254        -0.11025
C         14.59630        43.93617        -0.15274
C         16.00528        45.97881         0.17586
C         14.18580        46.94545        -0.57033
C         15.79583        48.87673        -0.74532
C         14.59307        48.20845        -1.09554
C         15.86843        50.26126        -0.98656
C         18.07476        10.65923        -1.27868
C         17.73665        11.72611        -0.41642
C         16.93860        12.83572        -0.59395
C         18.35969        14.66846         0.45976
C         16.95769        13.94126         0.43845
C         18.31858        16.03538         1.11692
C         17.14746        16.75788         1.15452
C         18.35298        18.82596         2.12760
C         17.10259        18.02780         1.83468
C         18.33004        20.17950         1.30861
C         17.01537        21.00788         1.36447
C         18.34198        23.17895         1.69573
C         17.05250        22.42044         1.90620
C         18.34042        24.64171         1.48808
C         17.11621        25.33427         1.51074
C         18.40027        27.32028         1.89366
C         17.14738        26.75263         1.66121
C         18.32500        29.44785         1.56598
C         17.07023        29.81683         1.14462
C         18.23027        31.68173        -0.05292
C         16.95493        30.88398         0.08623
C         18.20814        32.99515        -0.50713
C         16.88778        33.66757        -0.79872
C         18.22276        35.81820        -1.17062
C         16.96596        35.16987        -0.72559
C         18.21137        37.33137        -1.13196
C         17.00997        38.07076        -0.67442
C         18.26189        40.20223        -0.88108
C         17.08697        39.51977        -0.61553
C         18.30674        41.70811        -1.12419
C         17.02240        42.45164        -0.78894
C         18.34870        44.54250        -0.36571
C         17.07676        43.87587        -0.40407
C         18.42655        46.02624        -0.03670
C         17.10377        46.73724        -0.07320
C         18.31513        48.90065        -0.49751
C         17.01713        48.25609        -0.01235
C         18.31105        50.35493        -0.62401
C         17.03454        51.05039        -0.75764
C         18.19099        53.19533        -0.35609
C         16.98745        52.44430        -0.62646
C         18.16379        54.35149         0.39055
C         20.49945         6.59860        -2.43500
C         20.52490         7.88856        -1.85874
C         19.33797         8.64431        -1.74294
C         20.54156        10.47258        -0.63305
C         19.30089         9.92501        -1.15787
C         20.62226        11.80025        -0.03150
C         19.55813        12.41124         0.59705
C         20.79595        14.56395         0.92445
C         19.50423        13.81273         1.13516
C         20.81713        15.93657         1.23973
C         19.57660        16.59538         1.80718
C         20.81452        18.78928         1.56682
C         19.63333        18.10701         1.74604
C         20.86299        20.28257         1.21643
C         19.57126        21.02076         1.74220
C         20.85550        23.19239         1.24605
C         19.53484        22.43073         1.13038
C         20.83137        24.61582         1.12824
C         19.58361        25.31981         1.29739
C         20.80018        27.50118         1.12588
C         19.62136        26.73918         1.43786
C         20.83532        29.04561         1.17954
C         19.53528        29.79764         0.90379
C         20.66553        31.55983        -0.36008
C         19.47564        30.98929         0.16864
C         20.48900        32.72252        -1.12638
C         19.41339        33.62799        -0.97896
C         20.75016        35.75871        -1.39957
C         19.53086        35.05723        -1.22224
C         20.78287        37.24396        -1.14357
C         19.51140        38.02987        -0.92659
C         20.75147        40.16744        -0.97215
C         19.52247        39.50245        -0.99342
C         20.78056        41.61734        -0.83086
C         19.50787        42.32437        -0.40914
C         20.83880        44.57891        -0.46386
C         19.52265        43.83905        -0.52712
C         20.74713        45.97715        -1.09065
C         19.49102        46.73686        -0.83611
C         20.74965        48.96033        -1.20132
C         19.46484        48.21803        -0.78823
C         20.76224        50.34249        -0.58334
C         19.50123        51.05783        -0.66386
C         20.79209        52.88157         1.15238
C         19.43525        52.53701        -0.89306
C         20.62402        54.23533         1.02688
C         19.29444        54.92021         1.25716
C         20.52984        57.17236         1.05518
C         19.36844        56.42870         1.17741
C         20.57047        58.57578         1.28148
C         22.85858         3.97306        -3.67258
C         21.66865         4.61302        -3.32447
C         22.94961         6.51739        -2.42677
C         21.69103         5.89515        -2.71281
C         22.99797         7.77835        -1.75796
C         21.77080         8.47056        -1.43774
C         23.02585        10.35382        -0.37287
C         21.75050         9.75234        -0.82744
C         23.08544        11.79163        -0.11728
C         21.90494        12.49387         0.05239
C         23.18745        14.58123         0.31075
C         21.93942        13.88131         0.44424
C         23.14187        16.05085         0.36118
C         21.99721        16.70233         1.03399
C         23.34251        18.79965         1.36504
C         22.04543        18.06984         1.32428
C         23.38332        20.30628         1.50183
C         22.09975        21.08531         1.78807
C         23.29722        23.20265         1.02576
C         22.07614        22.51012         1.26648
C         23.27196        24.61556         0.81121
C         22.03495        25.34973         0.93608
C         23.20024        27.51666         0.46651
C         21.99719        26.80107         0.85159
C         23.23488        28.91349         0.30543
C         22.00304        29.65710         0.41197
C         23.20964        31.79641         0.04648
C         21.94849        30.94629        -0.12063
C         23.28522        33.17842        -0.56805
C         22.33718        33.76022        -1.34170
C         23.26288        35.94543        -1.40050
C         22.09275        35.18932        -1.41758
C         23.18542        37.34119        -1.97914
C         21.98179        38.05564        -1.42018
C         23.25190        40.15130        -1.29465
C         21.98271        39.42824        -1.23828
C         23.23446        41.57876        -0.92965
C         21.95208        42.30687        -0.94109
C         23.27738        44.52947        -1.22154
C         21.97359        43.78142        -1.07307
C         23.28234        45.98329        -0.98991
C         22.04429        46.74094        -1.41494
C         23.17422        48.76906        -0.49062
C         22.00695        48.16101        -0.90526
C         23.18089        50.17700        -0.15437
C         21.91747        50.89117        -0.05642
C         23.14428        52.92393         0.50777
C         21.97909        52.21843         0.57366
C         23.13721        54.35054         0.99700
C         21.82196        55.01728         0.63762
C         23.09845        57.22349         0.96327
C         21.81584        56.50466         0.72946
C         23.05904        58.61310         1.24212
C         21.79251        59.29139         1.37775
C         23.01391        61.37650         1.76827
C         21.80555        60.68137         1.64420
C         24.08803         4.58937        -3.45270
C         25.39494         6.53884        -2.68317
C         24.16066         5.87238        -2.83958
C         25.45972         7.81465        -2.07837
C         24.25904         8.38396        -1.53913
C         25.57568        10.42333        -0.92603
C         24.36121         9.62828        -0.78272
C         25.55158        11.84817        -0.59277
C         24.41898        12.40509         0.26564
C         25.64348        14.64699         0.08734
C         24.39854        13.91723         0.20643
C         25.66297        16.01495         0.00866
C         24.42170        16.79872         0.16861
C         25.77833        18.88925         0.57285
C         24.61923        18.03331         1.02271
C         25.75175        20.31425         0.70148
C         24.57113        21.05278         1.01856
C         25.74710        23.17034         0.53470
C         24.54181        22.46229         0.88465
C         25.70471        24.60246         0.29546
C         24.47405        25.29058         0.43352
C         25.66732        27.45810        -0.26001
C         24.37399        26.71517         0.06399
C         25.68799        28.92553        -0.18649
C         24.46603        29.62290        -0.05917
C         25.70014        31.76067        -0.32619
C         24.49463        31.03950        -0.16524
C         25.74521        33.21692        -0.36196
C         24.46459        34.03103        -0.17804
C         25.70770        35.98505        -1.08305
C         24.50278        35.33157        -0.98406
C         25.79539        37.36056        -1.60095
C         24.50461        38.10068        -1.89229
C         25.72916        40.24249        -1.39841
C         24.46326        39.54027        -1.56770
C         25.75836        41.59971        -1.18169
C         24.51440        42.34401        -0.96950
C         25.75517        44.49591        -0.96494
C         24.53374        43.80451        -1.09535
C         25.73703        45.93630        -0.72961
C         24.45229        46.62866        -0.67266
C         25.62614        48.73327        -0.13974
C         24.44575        48.06088        -0.42127
C         25.64324        50.16355        -0.03111
C         24.38845        50.84665        -0.01650
C         25.66234        52.98900         0.31420
C         24.37723        52.34267        -0.13539
C         25.65409        54.39871         0.84150
C         24.35524        55.11929         0.44616
C         25.56808        57.27348         0.93192
C         24.32758        56.56597         0.86213
C         25.52597        58.64967         1.19519
C         24.28958        59.32967         1.36861
C         24.23712        60.72698         1.63625
C         26.68914         8.52167        -1.97655
C         27.99794        10.55942        -1.42286
C         26.74363         9.84973        -1.48875
C         28.09761        11.85700        -0.93474
C         26.85204        12.60505        -0.65524
C         28.17071        14.67107        -0.18540
C         26.93844        13.86910         0.17411
C         28.17939        16.03333        -0.20609
C         26.89208        16.79947        -0.38393
C         28.16038        18.92870         0.04807
C         26.93345        18.22289         0.14700
C         28.16930        20.29746         0.30029
C         26.96217        21.03148         0.48035
C         28.20594        23.14581         0.08089
C         26.96360        22.46026         0.41726
C         28.17992        24.58771        -0.11603
C         26.91855        25.30411        -0.02938
C         28.12932        27.45842        -0.29571
C         26.93647        26.72097        -0.17835
C         28.15067        28.88022        -0.35454
C         26.91869        29.62036        -0.30752
C         28.18410        31.73452        -0.55660
C         26.93991        31.04541        -0.39847
C         28.20375        33.18887        -0.57456
C         26.93877        33.89570        -0.46822
C         28.21553        36.09309        -0.73895
C         26.91201        35.41873        -0.36843
C         28.27991        37.42112        -1.10424
C         27.02778        38.13499        -1.31973
C         28.23699        40.25668        -1.34031
C         26.98959        39.50784        -1.34653
C         28.25587        41.61969        -1.16194
C         26.99628        42.28693        -0.67471
C         28.22305        44.49461        -0.96152
C         26.96472        43.77718        -0.89151
C         28.19802        46.00733        -0.76872
C         26.90572        46.62684        -0.50149
C         28.16843        48.77515        -0.13276
C         26.90456        47.98382         0.13997
C         28.12418        50.17483        -0.07402
C         26.86635        50.87419         0.01617
C         28.11755        53.05950         0.22074
C         26.85690        52.31402         0.19542
C         28.09977        54.46010         0.30091
C         26.89482        55.19788         0.51852
C         26.81927        56.57140         0.68277
C         29.33465        12.53561        -0.74002
C         30.63231        14.59098        -0.34092
C         29.39766        13.90529        -0.42413
C         30.69820        16.00320        -0.26168
C         29.42951        16.74513        -0.70063
C         30.62391        18.80667         0.39610
C         29.45951        18.29879        -0.45511
C         30.70883        20.28647         0.33866
C         29.43685        21.05224         0.57532
C         30.65462        23.05138        -0.41947
C         29.39317        22.43443        -0.00267
C         30.64097        24.56544        -0.47352
C         29.37235        25.27857        -0.26413
C         30.63604        27.49621        -0.19003
C         29.40418        26.74000        -0.61214
C         30.65308        28.86955        -0.26658
C         29.39080        29.58688        -0.42068
C         30.69528        31.67603        -0.69584
C         29.39481        30.99251        -0.54713
C         30.69004        33.19529        -0.72531
C         29.40438        33.88987        -0.58452
C         30.72410        36.05259        -0.63117
C         29.43714        35.36641        -0.27176
C         30.79189        37.39889        -1.01257
C         29.55145        38.14592        -1.28151
C         30.62197        40.37313        -1.84912
C         29.48132        39.52470        -1.54588
C         30.75667        41.70002        -1.50383
C         29.46677        42.47302        -1.47499
C         30.73391        44.58524        -0.79064
C         29.49102        43.73974        -0.62605
C         30.68582        45.93340        -0.49338
C         29.45152        46.67530        -0.38576
C         30.64038        48.85069        -0.37451
C         29.41931        48.08349        -0.25428
C         30.59175        50.22315        -0.29999
C         29.35531        50.93810        -0.11121
C         29.32824        52.32897         0.03023
C         31.89778        16.65414        -0.01981
C         33.17440        18.82243         0.48648
C         31.93002        18.05129         0.41574
C         33.17542        20.21038         0.41962
C         31.90504        20.92240         0.27009
C         33.04608        23.14667         0.47721
C         32.00030        22.32216        -0.28455
C         33.22399        24.55523        -0.15425
C         31.88552        25.27050        -0.02703
C         33.13605        27.47709         0.22964
C         31.85861        26.75868         0.13651
C         33.14133        28.88328         0.12910
C         31.91377        29.59627        -0.11911
C         33.16448        31.71665        -0.12508
C         31.94225        30.98501        -0.28547
C         33.13121        33.17973        -0.09105
C         31.92694        33.89477        -0.32141
C         33.09892        36.01735         0.02443
C         31.91465        35.30936        -0.30839
C         33.14643        37.42211        -0.15252
C         32.09024        38.04707        -0.87088
C         33.36518        40.17756        -0.79679
C         32.40575        39.32423        -1.37200
C         33.35613        41.64491        -1.05260
C         32.06127        42.41938        -1.45038
C         33.22166        44.57754        -0.59193
C         32.02516        43.97164        -1.32053
C         33.18996        45.90371        -0.23465
C         31.92944        46.71085        -0.10125
C         31.92793        48.11646        -0.73252
C         34.36978        20.99485         0.55198
C         35.50568        23.16169         0.88425
C         34.36549        22.40069         0.59546
C         35.48958        24.60010         0.94158
C         34.33070        25.32456         0.53193
C         35.53339        27.47320         0.76789
C         34.31869        26.74418         0.52612
C         35.58415        28.85170         0.53181
C         34.38545        29.59279         0.23916
C         35.64781        31.75976         0.20283
C         34.37139        31.01400         0.11101
C         35.60158        33.25411         0.35504
C         34.28957        33.91174         0.28001
C         35.43631        36.05765         0.80275
C         34.27073        35.31655         0.40296
C         35.44090        37.45790         0.75490
C         34.31673        38.15682         0.20461
C         35.51806        40.31548         0.44896
C         34.36449        39.56048        -0.00300
C         35.51012        41.71501         0.25590
C         34.44337        42.40763        -0.37267
C         34.38611        43.79920        -0.29350
C         36.61088        25.32259         1.39804
C         37.83224        27.42468         1.67072
C         36.69016        26.74093         1.27799
C         38.13221        28.81174         1.18530
C         36.90591        29.53912         0.60829
C         37.94139        31.77054         1.34731
C         36.90446        31.03934         0.60252
C         38.03121        33.27644         1.26451
C         36.71489        33.97920         0.98984
C         37.74505        36.08845         1.78638
C         36.62017        35.33280         1.21347
C         37.71303        37.51779         1.70829
C         36.61245        38.21146         1.17674
C         36.59661        39.62644         1.04498
C         38.91404        29.66279         2.15235
C         39.94280        31.81614         2.81612
C         38.91186        31.05569         2.09244
C         39.86981        33.15023         2.97213
C         38.62795        33.88719         2.54027
C         38.77240        35.38132         2.38199
O         18.46213        28.52064         2.61147
O         11.90082        39.07445        -1.64938
O         28.31843        45.39381        -2.10448
O         20.95357        20.37234        -0.15486
O         19.74711        46.11155        -2.13958
O         15.97383        42.07686        -1.77325
O         18.41428        11.66375         0.84542
O         31.69788        39.75058        -2.49217
O         25.91648        12.68070        -1.76064
O         21.45735        32.97360        -2.08617
O         14.11453        27.09461        -0.05115
O         23.79522         9.55857         0.58894
O         23.46686        16.77424        -0.91001
O         18.04957        36.64324        -2.40680
O         23.92763        41.89375         0.37023
O         23.62859        19.44652         2.67912
O          9.02779        34.76718        -1.90978
O         20.24166        53.12885        -1.59496
O         24.78564        26.96148        -1.33182
O         37.32550        30.24910        -0.60785
O         15.76214        28.45371         2.84261
O         21.77231        55.80361        -0.59327
O         30.97813        18.19333         1.64329
O         33.07285        42.03666        -2.43488
O         30.83148        32.40912        -1.96201
O         14.19102        21.73396        -0.48507
O         20.25791        37.51530         0.22649
O         35.93741        32.62232        -0.95435
O         14.85262        46.62242         0.63900
O         30.64012        23.77899        -1.70252
O         25.36854        37.65976        -2.99316
O         17.92363        22.74716         3.03762
O         22.40796        44.16794        -2.41222
O         31.67131        25.81675         1.30500
O         29.34754        16.51916        -2.09876
O         38.92860        33.57749         0.16126
H         38.51630        33.22592        -0.65757
O         22.03438        21.25482         3.21303
H         22.44163        20.45050         3.61765
O         23.13011        54.37123         2.44586
H         24.02587        54.07733         2.75038
O         24.30381        52.56178        -1.58401
H         24.31692        53.54523        -1.72085
O         11.05786        28.69567        -0.88309
H         10.36392        28.06903        -1.18153
O         11.08961        36.05897        -2.19535
H         10.27780        35.61131        -2.60840
O         16.12179        19.53795        -0.29098
H         15.30588        19.42044        -0.81733
O         20.68181        49.13168        -2.64315
H         21.02341        48.29973        -3.05682
O         16.87019        48.63964         1.38632
H         16.01315        48.26204         1.68511
O         22.13232        46.83032        -2.87108
H         22.06197        45.90514        -3.21120
O         26.76028        16.95987        -1.83093
H         27.67119        16.79619        -2.22851
O         29.48959        26.74816        -2.09697
H         28.74349        26.20984        -2.43972
O         29.27973        42.93411        -2.84736
H         29.43840        42.18386        -3.45773
O         29.40161        35.43850         1.23296
H         29.70792        36.33719         1.48471
O         19.82852        52.11171         1.75594
H         20.09391        51.16966         1.73990
O         25.72001        54.26308         2.31041
H         26.02860        55.12241         2.67129
O         12.10150        25.33960        -0.42460
H         12.91020        25.82175        -0.72685
O         13.69305        37.09238        -1.92971
H         12.85780        36.80820        -2.37738
O         31.79424        46.96244         1.33420
H         31.84187        46.10082         1.79883
O         18.54124        41.88133        -2.53778
H         17.67458        41.77395        -2.98995
O         14.78874        42.44564         1.70425
H         13.92782        42.69032         2.10701
O         24.66818        12.00580         1.64238
H         24.50553        11.03302         1.69072
O         16.60043        33.34355        -2.21430
H         17.04511        34.01673        -2.77464
O         26.91444        47.72994         1.59843
H         26.92144        48.60417         2.04379
O         14.47126        21.61585         3.09063
H         15.35595        21.23493         3.28947
O         21.20351        44.73777         0.93616
H         20.45848        45.22507         1.37745
O         19.23712        13.70517         2.55703
H         18.31652        13.34173         2.63083
O         27.10349        13.43015         1.55196
H         26.88704        14.17902         2.14546
O         26.72468        35.72775         1.06747
H         27.59329        35.50741         1.49828
O         25.07304        17.42143         2.27795
H         24.99046        18.11664         2.97202
O         18.52892        19.73270        -0.02837
H         18.60993        20.52367        -0.60771
O         13.06325        36.07113         1.58478
H         13.78528        36.62026         1.97764
O          6.82553        33.87806         2.09191
H          6.81349        32.94189         2.38630
O         29.45916        43.32163         0.76233
H         29.11018        44.05415         1.31106
O         29.71047        18.91922        -1.73703
H         29.60019        18.16547        -2.39309
O         19.60990        21.07374         3.14616
H         20.11200        21.86146         3.44497
O         11.10429        40.28634         1.74016
H         10.31225        40.68350         2.15971
O         14.60752        38.04939         1.49769
H         15.29597        38.71335         1.78302
O         32.51249        23.31049         1.80378
H         33.04547        23.98039         2.28129
O         23.14052        32.03820         1.49812
H         23.62712        32.87881         1.69806
O         18.77929        14.84132        -0.91198
H         18.44956        15.70383        -1.23965
O         29.43424        21.23816         2.04334
H         29.67651        20.37748         2.44950
O         10.68825        32.13786         2.43006
H         10.73662        31.28920         2.91962
O         37.62121        33.66192         3.58191
H         37.95631        34.06039         4.41214
O         32.04013        48.02234        -2.15354
H         31.40033        47.35320        -2.47704
O         19.30981        22.32398        -0.29583
H         20.05895        21.73729        -0.62545
O         21.14942        29.33688         2.58673
H         20.36141        29.06249         3.11154
O         12.12863        26.75712         2.98848
H         11.31807        26.29235         3.28804
O         15.81452        19.41362         3.26893
H         16.73231        19.46344         3.66376
O         19.34152        42.03606         1.00705
H         20.12912        42.38347         1.47855
O         16.17399        40.19086         1.43619
H         15.68374        40.94704         1.85709
O         32.51689        22.09822        -1.62826
H         31.77825        21.78354        -2.19223
O         26.94099        42.07351         0.78884
H         25.99151        42.08628         1.05041
O         16.72791        13.38066         1.77013
H         16.09165        12.64096         1.68138
O         24.30226        55.13783        -1.00451
H         23.41276        55.51488        -1.24425
O         39.08940        28.59043         0.09124
H         38.85785        29.25047        -0.60877
O         33.61324        24.48557        -1.53464
H         33.20871        23.67347        -1.93500
O         19.46127        16.28630         3.23674
H         19.40950        15.29364         3.29975
O         18.88651        46.11582         1.36699
H         18.12587        45.90520         1.95005
O         22.88665        37.16352        -3.39780
H         23.75532        37.06285        -3.85374
O         18.39279        19.03068         3.56859
H         18.71363        18.17957         3.94909
O         24.37295        34.40476         1.22694
H         25.19335        34.92767         1.44006
O         18.83580        54.63355         2.61575
H         18.91845        53.66186         2.74347
O         32.11335        44.46593        -2.68734
H         32.73983        43.87205        -3.16104
O         16.72187        30.22918        -1.20109
H         16.56410        30.94050        -1.86152
H          5.01492        31.18491        -0.23168
H          4.99057        33.64638        -0.22734
H          7.45877        26.91184         0.87221
H          6.18725        29.03805         0.42268
H          6.34342        35.95621         0.74131
H          7.42400        37.97242        -0.17201
H          9.94293        22.66968         1.71968
H          8.70155        24.84791         1.59145
H          8.65895        40.04691         0.13926
H          9.94660        42.24703        -0.42268
H         12.53737        18.57739         2.02222
H         11.24319        20.54815         1.55515
H         11.24269        44.34066        -0.83625
H         12.64148        46.16954        -1.85818
H         14.83746        14.47902        -0.04887
H         13.77471        16.69495         0.22951
H         13.92501        48.72020        -1.80756
H         14.95247        50.78160        -1.30988
H         17.38063        10.37053        -2.08133
H         16.41222        12.99407        -1.54479
H         16.00936        52.94659        -0.55435
H         17.16763        54.74570         0.66407
H         19.53176         6.15508        -2.71331
H         18.40426         8.21706        -2.13745
H         18.43093        56.96330         1.40052
H         19.62761        59.11389         1.46464
H         22.82397         2.98137        -4.14516
H         20.70109         4.13384        -3.53077
H         22.99394        62.45618         1.97363
H         20.85175        61.21734         1.75282
H         25.01850         4.09100        -3.75990
H         26.31672         6.07069        -3.05769
H         26.46284        59.22389         1.25243
H         25.17541        61.29145         1.73497
H         27.60844         8.04569        -2.34652
H         28.91081        10.01874        -1.71515
H         29.04391        55.01340         0.17786
H         27.73747        57.17610         0.61778
H         30.26968        12.00107        -0.96869
H         31.55604        14.00492        -0.19817
H         31.51924        50.80692        -0.40589
H         30.27833        52.88467         0.00089
H         32.84754        16.09804        -0.08478
H         34.12952        18.27549         0.50938
H         34.09232        46.34501         0.22069
H         32.80922        48.69829        -0.36355
H         35.32676        20.46638         0.68759
H         36.45625        22.64729         1.09401
H         36.34244        42.31074         0.66138
H         35.21688        44.31819         0.21170
H         37.49191        24.77609         1.76594
H         38.67314        26.85826         2.09961
H         38.57972        38.08615         2.07869
H         37.47870        40.19909         1.36958
H         39.69620        29.16077         2.74220
H         40.80562        31.25344         3.20367
H         40.66237        33.69747         3.50620
H         39.62538        35.90772         2.83781
