         598
 CSIRO Nanostructure Databank - Neutral Graphene Oxide Data Set
C         23.57151        69.82649        -1.78799
C         23.79343        71.20896        -2.19545
C         22.88005        71.86637        -3.04394
C         24.22645        73.88239        -2.98494
C         23.09895        73.19439        -3.42416
C         25.34768        65.66999        -0.35000
C         25.33607        67.04250        -0.11273
C         24.06033        67.84272        -0.29480
C         25.46813        69.95253        -0.22406
C         24.35852        69.21539        -0.86724
C         25.92207        71.23064        -0.87677
C         24.92891        71.90997        -1.73805
C         26.35619        73.92682        -1.71334
C         25.16813        73.24653        -2.13868
C         27.78169        61.34294        -0.35022
C         27.74765        62.76218        -0.44787
C         26.57181        63.50800        -0.46019
C         27.77214        65.65907        -0.11808
C         26.56230        64.94134        -0.34224
C         27.75170        67.00336         0.29290
C         26.52468        67.69516         0.30629
C         27.81370        69.84383         0.75347
C         26.53270        69.15808         0.52162
C         27.77773        71.34085         0.89546
C         27.15444        71.95810        -0.41565
C         28.54773        74.13112        -0.75314
C         27.34355        73.38428        -0.88323
C         30.28841        57.11988         0.10404
C         30.19244        58.45678        -0.29143
C         29.00170        59.20641        -0.18983
C         30.27077        61.31392        -0.43426
C         28.98087        60.61384        -0.38040
C         30.29934        62.76123        -0.36109
C         29.03388        63.47696        -0.57953
C         30.31452        65.63220        -0.02812
C         29.05216        64.98758        -0.39486
C         30.29903        67.12053         0.14532
C         29.02332        67.63851         0.83841
C         30.26110        69.82854         1.01606
C         29.01498        69.16093         0.80999
C         30.35702        71.25545         1.16512
C         29.12072        71.93429         1.16181
C         30.92397        74.01984         0.19910
C         29.57139        73.88072         0.20049
C         32.79010        52.84877         0.49027
C         32.72834        54.22415         0.19980
C         31.58871        55.05911         0.47552
C         32.69666        57.06094        -0.49798
C         31.50598        56.37785         0.00724
C         32.68461        58.40322        -0.77270
C         31.37763        59.13788        -0.94587
C         32.73576        61.23556        -0.36108
C         31.43738        60.59148        -0.55412
C         32.74752        62.73899        -0.16592
C         31.48008        63.47804        -0.25318
C         32.74610        65.59237         0.29020
C         31.51474        64.92393        -0.05507
C         32.73893        66.92503         0.79958
C         31.53054        67.63143         0.84991
C         32.69018        69.69279         1.82512
C         31.43637        69.00614         1.35362
C         32.80089        71.16933         1.64629
C         31.62673        71.92738         1.37773
C         33.12184        73.96588         1.30302
C         31.71370        73.45879         1.36425
C         35.31141        48.59145         0.37905
C         35.19767        49.96175         0.03413
C         34.06865        50.70240         0.45801
C         34.88468        52.62228        -0.80014
C         33.90867        52.05365         0.08886
C         34.59773        53.92388        -1.28439
C         33.74740        54.80250        -0.63090
C         35.02721        56.96242        -1.48043
C         34.00702        56.29729        -0.50407
C         35.17655        58.40884        -1.04698
C         33.94173        59.14188        -0.91282
C         35.26474        61.21872        -0.65206
C         33.96742        60.51388        -0.73733
C         35.27775        62.69400        -0.40803
C         34.00918        63.49803        -0.39929
C         35.29657        65.51919         0.56977
C         34.03812        64.94224         0.01706
C         35.21974        66.86206         1.15881
C         33.99447        67.51870         1.26660
C         35.22250        69.52072         2.34363
C         33.93796        68.84166         1.93775
C         35.22217        71.02619         2.38924
C         34.06528        71.76901         1.82035
C         35.52603        73.80050         1.62753
C         34.22504        73.19200         1.60038
C         37.76393        44.41270         0.75352
C         37.64198        45.65358         0.11713
C         36.50540        46.43412         0.35325
C         37.53437        48.45349        -0.63544
C         36.43221        47.82019         0.01577
C         37.46261        49.82926        -0.94241
C         36.26680        50.59862        -0.70072
C         37.26832        52.61874        -1.74478
C         36.12480        51.96334        -1.11665
C         37.54092        54.04928        -1.83729
C         36.43059        54.93023        -1.93051
C         37.60208        56.88289        -1.17846
C         36.37391        56.25664        -1.54136
C         37.61512        58.22599        -0.74939
C         36.40677        58.99161        -0.71337
C         37.64489        61.02318         0.04065
C         36.48192        60.40917        -0.36460
C         37.65537        62.44463         0.49086
C         36.41813        63.28217         0.34906
C         37.64450        65.19925         1.35705
C         36.43614        64.74520         0.62197
C         37.64384        66.63571         1.81150
C         36.44522        67.49108         1.65064
C         37.74881        69.39128         2.67347
C         36.49457        68.77875         2.14159
C         37.82320        70.91510         2.73629
C         36.55669        71.72451         2.50718
C         37.94968        73.69482         1.93782
C         36.67467        73.10509         1.98502
C         40.50505        40.68340         2.57699
C         40.44634        42.14933         2.23997
C         39.13021        42.61515         1.70476
C         40.24574        44.51612         0.61356
C         39.03928        43.81222         1.01300
C         40.12833        45.83808        -0.04451
C         38.78620        46.13863        -0.77307
C         39.90866        48.31686        -1.67414
C         38.66993        47.63711        -1.13901
C         39.92979        49.81594        -1.59489
C         38.56492        50.45957        -1.61291
C         40.23123        52.76330        -2.29485
C         38.32195        51.72887        -2.10500
C         40.09137        54.08208        -1.80188
C         38.81709        54.73824        -1.67966
C         40.06933        56.82371        -1.13809
C         38.82460        56.12216        -1.30842
C         40.12738        58.21928        -0.72293
C         38.86656        58.81032        -0.22517
C         40.20056        60.93806         0.50741
C         38.87825        60.23565         0.28216
C         40.15351        62.39800         0.81200
C         38.94740        63.13280         0.73110
C         40.13726        65.09661         1.62459
C         38.94109        64.46996         1.18089
C         39.97265        66.32513         2.34830
C         38.93976        67.22454         2.19268
C         40.41686        69.36676         2.68465
C         39.03755        68.60523         2.69180
C         40.35239        70.84047         2.45631
C         39.14227        71.55718         2.48556
C         40.36510        73.65592         2.05081
C         39.14109        72.96892         2.17216
C         43.15863        37.43441         5.02150
C         43.05909        38.29615         3.90969
C         41.82809        38.86667         3.58308
C         42.96498        40.78232         2.44302
C         41.70756        40.06315         2.79682
C         42.86790        41.99919         1.59191
C         41.61314        42.63114         1.40942
C         42.66932        44.45589         0.04959
C         41.48588        43.86668         0.71551
C         42.66522        45.85554        -0.42213
C         41.35127        46.53108        -0.57146
C         42.52287        48.33577        -1.85743
C         41.23205        47.50687        -1.74912
C         42.50715        49.74529        -2.06984
C         41.24690        50.50986        -1.85440
C         42.57365        52.64004        -1.80318
C         41.34501        51.97427        -2.04806
C         42.56370        54.04716        -1.62868
C         41.31155        54.73753        -1.49871
C         42.51436        56.87158        -1.51561
C         41.28143        56.12903        -1.25842
C         42.46163        58.37236        -1.46632
C         41.29053        58.96779        -0.80106
C         42.70550        61.08012        -0.37721
C         41.48411        60.26317        -0.08950
C         43.02449        62.13968         0.47280
C         41.29451        63.06315         1.31273
C         42.77911        65.09525         1.53225
C         41.43616        64.46091         1.51596
C         42.91151        66.51994         1.86596
C         41.86076        67.28902         2.45486
C         42.85727        69.41816         1.96220
C         41.69176        68.67585         2.31060
C         42.81946        70.85009         2.00133
C         41.58191        71.53320         2.17114
C         42.80601        73.68787         1.96510
C         41.58332        72.96862         2.07420
C         45.73400        36.19734         7.45629
C         44.48913        36.43652         6.86184
C         45.61924        37.57538         5.00657
C         44.40232        37.14464         5.64304
C         45.57390        38.18433         3.73438
C         44.26722        38.54664         3.00118
C         45.42582        40.66290         1.83699
C         44.28110        40.04373         2.54813
C         45.33502        42.01156         1.38195
C         44.05332        42.58718         1.11820
C         45.24588        44.55296         0.05222
C         44.01625        43.78529         0.27361
C         45.17283        45.98770        -0.38916
C         43.81821        46.43900        -0.90606
C         45.00131        48.27802        -2.13374
C         43.75560        47.69192        -1.61403
C         44.94686        49.77854        -2.50521
C         43.70929        50.48461        -2.17185
C         45.01982        52.61516        -1.96058
C         43.78655        51.90102        -1.95041
C         45.02497        54.02840        -1.73174
C         43.80295        54.75041        -1.55100
C         45.00047        56.90076        -1.37495
C         43.80434        56.16711        -1.45532
C         44.98807        58.32806        -1.63191
C         43.74136        59.12947        -1.66346
C         45.01097        61.47650        -1.32616
C         43.75820        60.66389        -1.34691
C         45.01762        62.82117        -0.72249
C         43.95763        63.19528         0.23539
C         45.27357        65.13749         0.99320
C         43.92887        64.45652         0.89679
C         45.35110        66.56930         1.53219
C         44.08910        67.29701         1.66722
C         45.32905        69.47907         1.72510
C         44.09094        68.71583         1.77285
C         45.27367        70.89880         1.86457
C         44.04720        71.58338         1.92071
C         45.25341        73.78234         1.89465
C         44.03228        73.03387         1.93917
C         46.91522        36.62953         6.86008
C         48.09259        37.78703         5.00864
C         46.89777        37.30602         5.60871
C         48.06090        38.40642         3.74221
C         46.78769        38.37997         3.08791
C         47.88161        40.76512         1.83035
C         46.69313        40.04144         1.73443
C         47.78878        42.19377         1.54622
C         46.51589        42.72835         1.06033
C         47.71404        44.65802         0.00353
C         46.47797        44.01087         0.42681
C         47.61259        45.79147        -0.88991
C         46.39711        46.42178        -1.17159
C         47.50967        48.35940        -2.22723
C         46.34218        47.67763        -1.87828
C         47.54277        49.78711        -2.62039
C         46.22225        50.55286        -2.64721
C         47.48246        52.66488        -2.22380
C         46.25695        51.96846        -2.25715
C         47.50211        54.07601        -1.95240
C         46.24862        54.74096        -1.73268
C         47.47888        56.72405        -1.19873
C         46.23185        56.13759        -1.42189
C         47.46081        58.82256        -1.47793
C         46.15712        59.00577        -2.00059
C         47.45948        61.62561        -1.89390
C         46.14089        61.14323        -2.09109
C         47.57887        62.85176        -1.18762
C         46.34660        63.54488        -0.71087
C         47.64012        65.41147         0.13725
C         46.47344        64.68977         0.22098
C         47.82059        66.71351         0.80124
C         46.61735        67.36113         1.45143
C         47.79843        69.54861         1.34608
C         46.57558        68.83124         1.52333
C         47.82489        70.98762         1.68578
C         46.52302        71.67659         1.97251
C         47.72655        73.86801         1.93597
C         46.49073        73.15812         1.88691
C         49.19086        39.06834         3.14194
C         50.33188        40.88578         1.91232
C         49.13761        40.18689         2.27282
C         50.33369        42.12951         1.24363
C         49.08242        42.92014         1.17808
C         50.18727        44.61537        -0.24191
C         48.96753        44.07817         0.27664
C         50.15353        45.79209        -1.02328
C         48.85386        46.28380        -1.50315
C         50.07191        48.46171        -2.16356
C         48.81389        47.68817        -2.15309
C         50.04491        49.86425        -2.37314
C         48.78732        50.55925        -2.44127
C         49.95186        52.73411        -2.44971
C         48.74077        51.97160        -2.39693
C         49.96298        54.13281        -2.27640
C         48.72876        54.79637        -1.96583
C         49.85798        57.03665        -1.78692
C         48.71982        56.21073        -1.66492
C         49.86456        58.52565        -1.95383
C         48.65172        59.38288        -1.91820
C         50.00458        61.47770        -1.94035
C         48.68711        60.83988        -2.40257
C         49.99538        62.99180        -1.88884
C         48.79431        63.51867        -1.10969
C         50.07080        65.69603        -0.73490
C         48.75086        64.93464        -0.72982
C         50.12781        66.98633        -0.03587
C         48.97081        67.57670         0.45432
C         50.19839        69.75722         0.48809
C         48.97022        68.94101         0.87353
C         50.24333        71.13905         1.07647
C         48.92657        71.85907         1.10373
C         50.20248        73.86855         1.90134
C         48.96156        73.23366         1.72502
C         51.49208        42.72182         0.71733
C         52.63049        44.60526        -0.39942
C         51.45016        43.97633         0.04076
C         52.60244        45.86581        -1.03597
C         51.34305        46.46638        -1.37783
C         52.52428        48.53787        -2.05462
C         51.30719        47.80645        -1.91501
C         52.49310        49.90625        -2.43576
C         51.26760        50.57985        -2.55944
C         52.47815        52.86127        -2.91904
C         51.19549        52.03829        -2.82158
C         52.44367        54.26681        -2.43259
C         51.20348        54.88027        -2.20863
C         52.43954        57.06821        -1.63609
C         51.14554        56.30043        -1.77271
C         52.45764        58.54633        -1.77787
C         51.19985        59.27636        -2.06044
C         52.46561        61.45659        -1.74482
C         51.18483        60.77121        -1.88707
C         52.53065        62.83819        -1.56922
C         51.29732        63.61147        -1.41953
C         52.58461        65.65818        -0.87994
C         51.30767        64.90940        -0.97844
C         52.67167        66.81986         0.05221
C         51.41656        67.56928         0.37763
C         52.67559        69.65846         0.91124
C         51.48431        69.00036         0.70555
C         52.70271        71.09327         1.15230
C         51.43588        71.78808         1.30776
C         52.66392        73.87521         1.79600
C         51.43794        73.20276         1.68254
C         53.80471        46.57271        -1.30439
C         55.00760        48.62385        -1.88690
C         53.78783        47.88753        -1.77645
C         55.03597        49.95530        -2.28188
C         53.77333        50.60768        -2.71047
C         55.08306        52.88580        -2.92445
C         53.77957        52.09266        -2.96736
C         54.97246        54.20708        -2.18569
C         53.68520        54.96890        -2.19623
C         54.92000        57.06251        -1.68710
C         53.69709        56.32235        -1.86185
C         54.88155        58.46865        -1.56944
C         53.66250        59.20942        -1.74492
C         55.00394        61.35766        -1.52066
C         53.74317        60.69016        -2.05628
C         55.01326        62.80199        -1.41219
C         53.81923        63.50838        -1.45798
C         55.14731        65.62317        -0.92016
C         53.85894        64.96777        -1.23860
C         55.18422        66.99469        -0.43621
C         53.98374        67.51463         0.27031
C         55.23608        69.71869         0.78025
C         53.96660        68.91952         0.84698
C         55.17276        71.19282         0.93256
C         53.90703        71.81383         1.22465
C         55.12228        73.93792         1.58296
C         53.90231        73.23180         1.53255
C         56.23304        50.71080        -2.24038
C         57.48909        52.79106        -2.22078
C         56.28605        52.09779        -2.42992
C         57.59742        54.20951        -2.19259
C         56.28419        54.94192        -2.03184
C         57.29172        57.20623        -2.12083
C         56.18082        56.41114        -1.92332
C         57.46441        58.48124        -1.47202
C         56.11454        59.19053        -1.24914
C         57.45339        61.29921        -0.84944
C         56.15048        60.65342        -1.27702
C         57.48158        62.76306        -1.21149
C         56.30037        63.47629        -1.27842
C         57.57364        65.66240        -1.26138
C         56.31032        64.92474        -1.15512
C         57.57879        67.14956        -1.02554
C         56.34840        67.73267        -0.45938
C         57.57994        69.97972        -0.25853
C         56.44048        69.08404         0.14428
C         57.58340        71.36291         0.29659
C         56.34318        71.93127         0.88426
C         57.59772        74.00163         1.34505
C         56.35593        73.32432         1.25842
C         58.87630        54.75104        -1.97060
C         60.08148        56.96989        -1.43061
C         59.18693        56.14992        -2.07788
C         60.01370        58.43779        -1.42049
C         58.77245        59.18909        -1.47689
C         59.97365        61.25276        -0.96797
C         58.74813        60.56041        -1.21712
C         59.97757        62.65364        -0.71531
C         58.79181        63.43713        -1.13195
C         59.83110        65.56625        -0.10391
C         58.86496        64.92499        -1.09761
C         60.07943        67.04689        -0.37153
C         58.90715        67.83143        -0.80879
C         60.12000        69.92472         0.05896
C         58.90213        69.30839        -0.48828
C         60.08002        71.32921         0.43239
C         58.88606        72.01355         0.58045
C         60.05868        74.01303         1.42838
C         58.84491        73.37707         1.09410
C         61.19016        59.13193        -1.11967
C         62.40039        61.23688        -0.56911
C         61.21018        60.53608        -0.89691
C         62.38944        62.60958        -0.25460
C         61.13995        63.31423        -0.32872
C         62.35839        65.41734         0.49144
C         61.08438        64.72564         0.12819
C         62.36542        66.91731         0.58253
C         61.22020        67.70537         0.03019
C         62.57712        69.84532         0.33068
C         61.27471        69.15959         0.12356
C         62.59036        71.25563         0.76294
C         61.37145        72.08749         0.50007
C         62.49302        73.92959         1.74326
C         61.30771        73.37004         1.27128
C         63.60294        63.32205         0.04407
C         64.86624        65.37940         0.56727
C         63.64848        64.68993         0.33458
C         64.93323        66.76589         0.84896
C         63.67941        67.56945         0.82050
C         64.98598        69.67025         1.19412
C         63.81941        69.03324         0.56596
C         64.95344        71.03802         1.48929
C         63.73641        71.81914         1.28863
C         64.89118        73.78475         2.24080
C         63.72794        73.21006         1.73844
C         66.11215        67.44471         1.16265
C         67.29245        69.48553         1.94878
C         66.14062        68.85876         1.45120
C         67.29916        70.87354         2.24591
C         66.11807        71.65251         2.04007
C         67.27610        73.63013         2.89853
C         66.10532        73.04064         2.38455
C         68.45881        71.51447         2.76546
C         68.43942        72.86723         3.07652
O         46.00962        60.02982        -2.93631
O         31.72034        69.23533         2.80431
O         39.80097        68.85393         3.89556
O         59.27031        64.26582        -2.31310
O         48.84317        46.46117        -2.94836
O         35.65361        71.62961         3.65462
O         35.56771        62.19713        -1.74990
O         57.50810        66.61189        -2.37985
O         35.26206        54.35263        -2.43336
O         34.03486        64.51739        -1.42864
O         53.14667        65.84191        -2.21735
O         41.10603        60.16032         1.31978
O         25.41608        69.80408         1.22282
O         43.45471        60.15154        -2.67224
O         51.68879        52.57252        -4.10657
O         59.13963        68.82415        -1.85206
O         43.84478        40.96840         3.61223
O         47.55109        57.88229        -0.43016
O         61.50712        64.82184         1.53871
O         48.46898        43.10159         2.49032
O         63.51887        69.50960        -0.77975
O         51.75306        56.55894        -0.42461
O         27.24579        71.03352        -1.53946
O         37.32917        65.51710         2.75214
O         54.15235        67.76258         1.70398
O         37.63946        70.11438         3.93246
O         40.97442        66.60403         3.27476
O         56.84320        58.56509        -0.13472
O         44.81565        48.74801        -3.50695
O         53.82744        51.15369        -4.08424
O         62.75834        67.33730         1.94492
O         29.01105        73.26199         1.39286
O         43.23719        43.56922        -0.97708
O         56.29286        69.11764         1.60870
O         32.86581        61.85814         0.99615
O         29.08338        64.37169        -1.73957
O         40.72604        50.27402        -0.44987
O         42.36142        62.25526         1.70026
O         47.44555        71.24707         3.05810
O         49.12069        65.79714        -1.86323
O         45.34779        63.84911        -1.74286
O         44.12235        37.71500         1.90367
O         34.38826        68.84708         3.33536
O         39.21237        52.22083        -3.06312
O         46.90117        50.19623        -3.88375
O         40.70808        46.96932         0.67619
O         38.73294        59.11243         1.21181
O         42.23020        57.67857        -2.74016
O         36.70129        62.59001         1.61780
O         45.51491        65.42183         2.41102
O         50.55374        58.82176        -3.29077
O         61.61144        72.54286        -0.99705
O         46.76613        38.64649         1.71766
O         52.01307        66.58022         1.32682
O         55.59739        54.27502        -0.87839
O         47.66198        66.73767         2.26078
O         38.88825        47.85889        -2.58276
O         58.29800        56.79605        -2.97937
O         38.86840        45.38813        -1.94344
O         57.32634        71.08404        -1.16639
O         50.09888        69.92974        -0.97295
H         49.36789        70.57993        -1.12293
O         49.83938        63.43340        -3.26996
H         49.18044        62.84175        -3.70481
O         30.27672        67.70798        -1.20014
H         30.85162        67.16593        -1.78136
O         59.06027        65.54890         1.13142
H         59.71560        65.47723         1.86810
O         60.48006        73.30941        -1.40926
H         59.92493        72.65912        -1.90727
O         26.91927        71.73931         1.98659
H         27.18510        72.64674         2.25363
O         45.27535        46.75115         0.88874
H         46.10212        46.46709         1.33633
O         31.15418        73.97129         2.61347
H         31.68879        73.60347         3.34849
O         29.12920        67.22570         2.22211
H         28.41191        67.65224         2.73548
O         34.60413        56.42555         0.81580
H         33.94809        56.12843         1.48104
O         57.43736        61.25324         0.61972
H         57.31734        60.30402         0.86230
O         48.52079        72.06071        -0.30704
H         49.07488        72.78508        -0.66987
O         23.12055        67.13705        -1.09766
H         23.52029        66.97799        -1.97697
O         34.40277        56.94456        -2.78454
H         35.03790        57.30062        -3.43936
O         41.16200        46.69229        -2.92830
H         40.28630        46.20678        -2.88449
O         40.60723        42.82715         3.55753
H         41.49017        42.57641         3.90807
O         48.69944        60.89228        -3.85171
H         49.38286        60.24658        -4.15279
O         53.87716        60.74871        -3.51683
H         53.82838        61.69077        -3.78699
O         55.36252        53.26714        -4.29749
H         55.10857        52.50052        -4.86159
O         31.11910        59.12348        -2.39286
H         31.18180        58.19264        -2.69582
H         24.39940        74.92130        -3.29968
H         26.50680        74.95377        -2.08022
H         28.65191        75.01364        -1.40373
H         31.44903        74.35917        -0.70306
H         33.25272        75.04960         1.16410
H         35.60997        74.85558         1.32792
H         38.03399        74.75151         1.64420
H         40.35724        74.74486         1.89953
H         42.77102        74.78649         1.92830
H         45.19285        74.88078         1.87433
H         47.70664        74.94426         2.16728
H         50.22212        74.91261         2.24975
H         52.66635        74.94400         2.05812
H         55.11074        75.00257         1.86093
H         57.60124        75.04432         1.69786
H         60.02805        75.00636         1.90208
H         62.47045        74.92846         2.20595
H         64.87531        74.83632         2.56541
H         67.27340        74.69691         3.16436
H         22.70879        69.28787        -2.20859
H         21.99341        71.32728        -3.40619
H         22.37722        73.69574        -4.08401
H         24.40540        65.15732        -0.59274
H         23.58261        67.99380         0.71206
H         26.82931        60.79846        -0.25949
H         25.60352        62.98495        -0.46550
H         29.40415        56.62274         0.53266
H         28.06805        58.69642         0.09477
H         31.98210        52.37719         1.06821
H         30.70577        54.60728         0.95252
H         34.48577        48.11143         0.92545
H         33.30974        50.21198         1.08518
H         36.87247        43.94869         1.20602
H         35.69721        46.01180         0.97306
H         39.56990        40.17706         2.86291
H         38.21516        42.08037         1.99948
H         42.23488        37.04732         5.48223
H         40.93862        38.55975         4.16029
H         45.77797        35.66061         8.41435
H         43.56928        36.08687         7.35194
H         47.87981        36.44060         7.35288
H         49.04112        37.70733         5.55958
H         50.18190        38.82432         3.55875
H         51.29928        40.40629         2.12558
H         52.45919        42.20847         0.82268
H         53.60222        44.13621        -0.18493
H         54.76800        46.09958        -1.06274
H         55.94641        48.13039        -1.59413
H         57.15344        50.19483        -1.92480
H         58.40354        52.20047        -2.05094
H         59.69208        54.04247        -1.75387
H         60.87256        56.51376        -0.81652
H         62.12967        58.56870        -1.01768
H         63.35271        60.68642        -0.54233
H         64.54973        62.76179         0.00176
H         65.80453        64.80428         0.53777
H         67.05367        66.88014         1.24084
H         68.20321        68.89402         2.12478
H         69.37291        70.92393         2.92183
H         69.34342        73.34708         3.47695
