         252
 CSIRO Nanostructure Databank - Neutral Graphene Oxide Data Set
C         30.98860        31.96026        -2.11813
C         31.04477        33.19518        -1.96387
C         30.99439        36.33129        -1.55989
C         31.05300        37.58640        -1.46659
C         30.77777        40.56494        -0.69497
C         30.74150        41.76466        -0.24925
C         32.91717        28.98206        -1.05192
C         31.88911        29.58056        -1.49792
C         32.88837        31.64191        -0.72047
C         31.89354        31.02140        -1.49222
C         33.10251        33.15458        -0.72501
C         31.88478        34.01044        -1.15189
C         32.73967        36.09751         0.08162
C         31.84516        35.35891        -0.95068
C         33.20319        37.49507        -0.45934
C         31.99152        38.39111        -0.79206
C         32.70713        40.15835         0.78113
C         31.87387        39.70670        -0.30838
C         32.75627        41.53418         1.43302
C         31.37608        42.57697         0.62306
C         32.79784        44.46291         1.28307
C         31.74310        43.84833         0.92378
C         35.54467        27.27817        -0.27296
C         35.30741        28.69552        -0.19516
C         34.08081        29.36984        -0.40536
C         35.17006        31.49327         0.48988
C         33.82821        30.79346         0.14889
C         35.12670        32.95823         0.80413
C         33.87669        33.73734         0.47425
C         35.23775        35.94030         0.81057
C         33.91785        35.23530         0.62320
C         35.26160        37.30634         0.87181
C         34.01740        38.07220         0.66841
C         35.67276        40.29502         1.35285
C         33.49539        39.13300         1.42538
C         35.32548        41.72990         1.05899
C         34.05677        42.35742         1.28981
C         35.28474        44.52607         1.23669
C         34.07429        43.79285         1.29098
C         35.52569        45.88301         1.19236
C         37.89468        27.15863         0.02369
C         36.53620        26.59682         0.04550
C         37.83339        28.69786         0.08960
C         36.51566        29.38099         0.04480
C         37.70459        31.53265         0.56674
C         36.47912        30.88890        -0.05878
C         37.56620        32.77235         1.11289
C         36.41369        33.69217         1.06253
C         37.84184        35.94712         0.69347
C         36.54024        35.20827         0.99876
C         37.80009        37.30066         0.35054
C         36.50863        38.02051         0.44657
C         37.73817        40.26702         0.03290
C         36.48812        39.50484         0.36145
C         37.73959        41.74546         0.33779
C         36.52508        42.42140         0.86364
C         37.88115        44.60725         0.81462
C         36.66651        43.83310         1.34504
C         37.86450        46.06748         0.91703
C         36.58053        46.59696         1.16864
C         40.49329        24.50946         0.44241
C         39.39970        25.04911         0.14403
C         40.39766        27.22939         0.72897
C         39.10026        26.43930         0.52066
C         40.37564        28.76522         0.80646
C         39.04232        29.44997         0.50467
C         40.23730        31.60507         0.36051
C         39.01050        30.84458         0.56779
C         40.29403        33.01324         0.25004
C         39.32954        33.89063         0.83936
C         40.13513        35.86781        -0.30092
C         39.10757        35.23333         0.50297
C         40.32780        37.36983        -0.11335
C         38.98603        38.09299        -0.02211
C         40.16854        40.28228        -0.50292
C         38.96938        39.46759        -0.13807
C         40.26468        41.71449        -0.00874
C         39.05721        42.44949         0.46528
C         40.33412        44.61925         0.31913
C         39.06264        43.94020         0.50847
C         40.37699        46.13726         0.37944
C         39.07513        46.79483         0.88736
C         40.44925        48.73888         1.40316
C         39.34294        48.09217         1.24831
C         43.10250        24.59418         0.51204
C         41.77816        25.08902         0.54745
C         42.91356        27.30956         0.45054
C         41.73638        26.54755         0.57868
C         42.83758        28.70809        -0.05332
C         41.49087        29.39617        -0.01342
C         42.72326        31.66848        -0.40362
C         41.41760        30.88951        -0.18314
C         42.67161        33.14262        -0.45516
C         41.36369        33.68621        -0.43792
C         42.98146        36.11466        -1.10491
C         41.10901        35.03646        -0.83301
C         42.77525        37.41943        -0.79221
C         41.40106        38.03958        -1.05591
C         42.73827        40.28622        -0.61738
C         41.44329        39.57031        -0.83117
C         42.74478        41.74452        -0.16718
C         41.46272        42.51563        -0.52020
C         42.82136        44.60640         0.01429
C         41.51045        43.94451         0.01606
C         42.84640        46.07670         0.30858
C         41.64960        46.59973         1.11547
C         43.04044        48.59771         1.37094
C         41.70119        48.17954         1.38233
C         44.17459        25.22848         0.62214
C         45.49188        27.44278         0.08006
C         44.27226        26.68407         0.54468
C         45.35756        28.86924        -0.42554
C         44.05095        29.53649        -0.23711
C         45.18923        31.73589        -0.17102
C         44.02531        30.94945        -0.28756
C         44.97229        33.13625         0.38490
C         43.89493        33.90636        -0.37300
C         45.20707        36.02306        -0.12484
C         44.02724        35.28641        -0.53807
C         45.21310        37.44081        -0.22299
C         43.89145        38.16551        -0.13621
C         45.23297        40.22793        -0.97054
C         43.91501        39.60908        -0.56878
C         45.24152        41.75139        -0.93260
C         43.97933        42.49980        -0.62744
C         45.39683        44.51087        -0.00607
C         44.00048        43.93888        -0.23198
C         45.38621        46.06010        -0.04064
C         44.16187        46.81290         0.27371
C         44.13179        47.99705         1.16709
C         47.75870        27.63845        -0.55190
C         46.79303        26.88242        -0.34594
C         47.95769        29.04608        -0.43547
C         46.61711        29.69981        -0.60200
C         47.70072        31.78157         0.37791
C         46.58012        31.22528        -0.50570
C         47.59184        33.19937         0.80656
C         46.27424        33.90489         0.67434
C         47.54803        36.07232         0.51158
C         46.34066        35.36219         0.38629
C         47.61714        37.40997         0.07037
C         46.42926        38.13300        -0.18050
C         47.70569        40.23261        -0.87053
C         46.44812        39.65313        -0.23224
C         47.76653        41.70873        -1.09028
C         46.56325        42.45696        -0.98068
C         47.35392        44.69659        -1.68456
C         46.46070        43.88443        -0.94730
C         47.51867        46.05150        -1.31670
C         46.51521        46.50678        -0.62918
C         50.40080        29.29800         0.13299
C         49.04955        29.75152        -0.00378
C         50.03424        31.74565         1.30243
C         48.89865        31.12631         0.52464
C         49.82530        33.19898         1.81235
C         48.86458        33.96143         0.91178
C         50.00371        36.20678         1.14412
C         48.69696        35.43950         1.27227
C         50.10421        37.42053         0.49740
C         48.96902        37.92538        -0.37024
C         50.25532        40.17537        -0.63514
C         48.98744        39.42523        -0.73313
C         50.30019        41.53177        -1.06598
C         49.07216        42.24715        -1.42487
C         50.46613        44.04216        -2.18355
C         49.17667        43.49157        -2.12480
C         51.45915        29.89050         0.41646
C         52.47878        32.06871         1.51995
C         51.44262        31.06053         1.29952
C         52.30796        33.19672         2.00299
C         51.13656        34.06207         2.08321
C         52.40183        36.32253         1.58587
C         51.16762        35.55894         1.82855
C         52.40314        37.38834         0.93943
C         51.35220        38.15829         0.37755
C         52.57477        40.26585        -0.26662
C         51.41195        39.46031        -0.15053
C         52.69637        41.43120        -0.70177
C         51.60712        42.20521        -1.17815
C         51.51292        43.46435        -1.76649
O         41.98084        35.46911        -1.83104
O         40.54759        46.61297        -1.00403
O         33.31591        34.34770         1.65580
O         41.86255        28.71138        -1.21197
O         41.86120        31.22013        -1.52353
O         40.62093        40.19982        -1.88799
O         50.54329        30.89912         2.40389
O         44.34798        42.26793        -2.02520
O         36.41915        34.51399         2.28699
O         50.98247        34.98923         3.14383
O         43.21335        46.89782        -0.84375
O         46.72324        33.49188         2.02310
O         48.08431        44.09788        -2.71515
O         48.27676        39.54925        -2.01998
O         36.04013        38.77818        -0.80568
O         45.19291        27.34296         1.48143
O         37.52606        41.24274        -1.04207
O         35.09834        31.92632         1.86978
O         39.57486        26.73397         1.85373
O         35.82942        39.98049         2.53080
O         38.14935        27.91880        -1.17162
O         45.91098        29.14586        -1.76656
O         38.60462        33.30426         1.88309
O         40.01100        41.82904         1.42492
O         44.32520        32.90656         1.68037
H         45.05167        32.86050         2.35030
O         36.44235        31.22754        -1.47606
H         37.15089        30.72475        -1.93242
O         41.65077        45.97317         2.39708
H         42.47001        46.21651         2.87682
O         42.84728        41.69906         1.27558
H         41.94903        41.62809         1.67155
O         45.38802        39.82521        -2.35218
H         44.83110        40.42724        -2.89549
O         32.38697        41.51259         2.75668
H         31.76159        40.78072         2.93136
O         43.63573        38.24240         1.31546
H         42.67936        38.03893         1.46965
O         33.65712        39.22193         2.76279
H         34.30267        38.55802         3.08093
O         36.91314        43.73829         2.78499
H         36.93598        44.64922         3.14950
O         34.08566        33.38701        -1.78865
H         33.72265        33.03250        -2.62924
O         41.02880        37.77761        -2.40560
H         40.60815        38.59489        -2.76487
O         33.96104        37.25017        -1.64167
H         34.64630        37.95313        -1.73328
O         40.90899        37.49151         1.23111
H         40.32232        37.02890         1.86818
O         49.21117        37.22441        -1.62835
H         48.69964        37.70036        -2.32423
O         49.22069        33.04815         3.11190
H         49.68749        32.31362         3.57105
O         46.43280        40.13784         1.12812
H         45.66551        39.73327         1.59077
O         40.71596        29.09502         2.17764
H         40.16443        28.52983         2.76405
O         46.86531        31.74144        -1.84414
H         46.38556        31.16137        -2.47854
O         31.88924        36.39782         1.19521
H         31.84320        35.59321         1.76195
O         33.09912        30.57564         1.37387
H         33.54700        31.09515         2.08722
O         48.33669        35.56432         2.67370
H         47.84131        34.74677         2.92697
O         39.39619        46.09121        -1.74226
H         39.65074        46.30706        -2.67225
O         41.34127        42.64309        -1.94634
H         42.23013        42.80108        -2.33174
O         45.75732        44.09155         1.33692
H         46.70045        44.30978         1.49147
