         260
 CSIRO Nanostructure Databank - Neutral Graphene Oxide Data Set
C         30.43711        31.34355         0.28074
C         30.42302        32.58653         0.34802
C         30.29729        35.87998         0.47370
C         30.25338        37.11268         0.51080
C         30.29038        40.20551        -0.41157
C         30.35453        41.40653        -0.72183
C         32.91601        28.75368        -0.34464
C         31.76220        29.13591        -0.00038
C         32.89743        31.51619        -0.74502
C         31.20774        30.37214        -0.38785
C         32.76539        32.94357        -0.40892
C         31.43718        33.60001         0.11827
C         32.71116        35.80395         0.68342
C         31.43593        34.97775         0.71000
C         32.68619        37.32501         0.47850
C         31.37463        38.04707         0.31173
C         32.52661        40.39793         0.67652
C         31.25420        39.52400         0.45445
C         32.58504        41.74915         0.02734
C         31.49359        42.26991        -0.71885
C         32.85327        43.99825        -1.45005
C         31.64810        43.57928        -1.27801
C         35.62528        27.30121         0.06742
C         35.43060        28.70635        -0.19391
C         34.19646        29.35817        -0.38502
C         35.34575        31.52984        -0.35676
C         34.12964        30.79730        -0.53272
C         35.28550        33.03101        -0.71844
C         34.04811        33.67177        -0.08349
C         35.15957        36.07019        -0.09550
C         34.02086        35.11558         0.34276
C         35.17301        37.31594         0.78256
C         33.90365        38.09655         0.96327
C         35.03479        40.57515         1.26016
C         33.81875        39.65072         1.08127
C         35.03665        42.00521         0.79662
C         33.77213        42.71781         0.29666
C         35.42429        44.04062        -1.34065
C         34.05096        43.67626        -0.87814
C         35.58294        45.43535        -1.91572
C         37.84007        27.32659         0.98474
C         36.52451        26.74694         0.71529
C         37.94011        28.72674         0.33346
C         36.63898        29.43341        -0.02251
C         37.69406        31.65351         0.45588
C         36.54266        30.85463        -0.03975
C         37.70879        33.12806         0.26001
C         36.53961        33.83878        -0.35851
C         37.68207        35.81839         0.77384
C         36.50159        35.31405        -0.07800
C         37.66987        37.30678         0.98013
C         36.36124        37.76232         1.31398
C         37.59034        40.43297         1.12536
C         36.37238        39.97250         1.52310
C         37.67324        41.86848         0.75085
C         36.40470        42.65580         0.58885
C         37.82772        44.63380        -0.33209
C         36.49094        43.93019        -0.21961
C         37.95611        45.78388        -1.29976
C         36.65897        46.04468        -1.81939
C         39.96475        24.65793         0.00656
C         39.29065        25.16539         0.92091
C         40.47422        27.33770         0.75613
C         39.13463        26.60300         1.14158
C         40.11215        28.74674         0.15985
C         39.07301        29.54366         0.91410
C         40.15145        31.66489        -0.09085
C         39.02614        30.99417         0.66850
C         40.18253        33.12858         0.27628
C         39.02569        33.82526         0.26851
C         40.16297        35.94941         1.03440
C         39.02900        35.33536         0.23180
C         40.11228        37.42882         1.15836
C         38.86467        38.07754         1.13257
C         40.14994        40.35336         0.99010
C         38.83344        39.58775         1.00963
C         40.05248        41.84808         1.11806
C         39.00542        42.51107         0.53393
C         40.37783        44.32449        -0.60803
C         39.12139        44.02631         0.27789
C         40.44537        45.64726        -1.31841
C         39.15223        46.41883        -1.54467
C         40.53487        48.09692        -2.60964
C         39.41927        47.54156        -2.36324
C         41.94068        24.84181        -1.69840
C         41.10092        25.23770        -0.65514
C         42.39234        27.35410        -0.87202
C         41.35176        26.59865        -0.26731
C         42.62508        28.72114        -0.29695
C         41.37393        29.52109        -0.16641
C         42.73119        31.59571         0.01548
C         41.44946        30.88984        -0.06519
C         42.72399        33.08698         0.13809
C         41.46228        33.86031         0.29353
C         42.75839        35.89405         1.15113
C         41.46200        35.19659         0.98547
C         42.70359        37.33297         1.54959
C         41.39225        38.11933         1.48754
C         42.80596        40.28930         0.97985
C         41.47356        39.59001         1.08827
C         42.97418        41.72892         0.71743
C         42.08838        42.92193         0.94781
C         43.01496        44.22613        -0.76692
C         41.69163        43.50565        -0.42083
C         43.05186        45.59970        -1.34412
C         41.76403        46.43723        -1.29780
C         43.13016        48.18765        -2.25305
C         41.81289        47.70894        -2.25871
C         42.84398        25.51054        -2.28201
C         45.19983        28.04713        -1.97546
C         43.16915        26.83405        -1.93312
C         45.19772        28.93744        -0.92281
C         43.94575        29.44312        -0.26018
C         45.16224        31.51614         0.69541
C         43.92583        30.91380         0.01242
C         45.26441        33.02348         0.52993
C         44.00122        33.81881         0.42437
C         45.24533        35.88596         1.13007
C         43.93398        35.22323         0.93703
C         45.33198        37.36941         1.35864
C         44.02592        38.10422         1.58730
C         45.43802        40.28095         1.38658
C         44.05653        39.59452         1.47989
C         45.40119        41.70346         0.90056
C         44.23271        42.28791         0.46247
C         45.37291        44.52188         0.32921
C         44.04727        43.78505         0.31624
C         45.46310        45.87282        -0.37352
C         44.37762        46.37921        -1.25589
C         44.16375        47.78218        -1.66116
C         47.55076        28.02869        -1.88089
C         46.51317        27.67928        -2.47357
C         47.81935        29.00620        -0.88315
C         46.48368        29.45056        -0.32564
C         47.82148        31.50064         0.64184
C         46.49130        30.77687         0.41873
C         47.82725        33.00096         0.83003
C         46.52389        33.72492         0.95568
C         47.52261        35.88387         0.17124
C         46.46929        35.18098         0.67083
C         47.26498        37.29184        -0.18464
C         46.43328        38.06545         0.61284
C         47.85650        40.30719         0.73984
C         46.45018        39.57130         0.45590
C         47.86007        41.72745         1.31814
C         46.54539        42.56255         1.34537
C         47.94360        44.51633         0.34948
C         46.54767        43.90026         0.64608
C         47.69031        45.99675         0.50463
C         46.67432        46.56789         0.09346
C         50.32202        29.21447        -0.98532
C         49.01586        29.55620        -0.52051
C         50.39396        31.63353         0.17652
C         49.13329        30.82137         0.30032
C         50.20203        33.05459        -0.20068
C         49.05390        33.81183         0.43291
C         50.06670        36.10589        -0.40988
C         48.90484        35.29718         0.14430
C         50.23611        37.53312         0.05030
C         49.38119        38.14994         0.92928
C         50.49407        40.35201         0.92493
C         49.19283        39.62316         0.77089
C         50.47525        41.68906         1.33739
C         49.18625        42.45693         1.45845
C         50.39533        44.31835         0.68532
C         49.14190        43.92071         1.08183
C         51.43728        29.76063        -0.93721
C         52.71035        31.90141        -0.51866
C         51.76239        30.88549         0.04799
C         52.51430        33.05492        -0.89144
C         51.29182        33.86145        -0.91142
C         52.44418        36.24990        -0.81060
C         51.28091        35.35595        -0.91396
C         52.49278        37.47080        -0.64958
C         51.30089        38.44029        -0.61649
C         52.55540        40.65523        -0.12876
C         51.54485        39.73679         0.14988
C         52.84435        41.88685        -0.25335
C         52.23125        42.89357         0.51233
C         51.56661        44.08494         0.21717
O         48.60621        30.79698         1.65884
O         50.24286        33.27301        -1.70111
O         31.85950        30.94117        -1.54109
O         38.47214        27.16994         2.28006
O         36.30423        38.79492         2.24958
O         39.24373        30.43870         2.01626
O         45.58349        36.45644         2.46914
O         41.01859        42.60867         1.80528
O         31.47949        40.17801         1.69832
O         37.33615        32.55007         1.55807
O         43.47333        28.68479         0.90908
O         49.36750        34.79283         1.46743
O         38.95904        28.48138        -0.83000
O         36.78503        45.04756         0.64089
O         34.31447        34.05638         1.29313
O         42.20447        39.61107        -0.19108
O         48.61686        40.14703        -0.49870
O         32.19672        37.69740        -0.84508
O         51.65561        42.29726         1.74889
O         36.89377        34.80745        -1.39527
O         43.20863        44.42657        -2.18669
O         31.83128        33.67433        -1.27195
O         40.60856        35.18172         2.19138
O         33.65143        38.76941         2.22484
O         39.48015        39.95853        -0.25753
O         41.92808        37.65265         2.75478
O         44.08802        27.58509        -2.64341
O         43.97183        38.96186         2.78269
O         45.49112        45.66496        -1.82983
O         48.48154        41.88162         2.62256
O         46.47892        29.50034         1.12932
O         37.10122        42.74010         1.85547
O         42.09219        33.77427        -1.02500
O         47.25580        33.34574         2.13782
O         40.25595        44.40403        -2.06769
O         32.13624        35.28333         1.92488
O         50.31548        35.93984        -1.84540
O         44.89509        33.59958        -0.75272
O         43.05054        43.93505         1.46536
O         34.79909        41.66966         2.20337
O         48.18752        44.25907        -1.03272
H         47.53603        44.75899        -1.57465
O         41.82343        46.99974         0.03010
H         41.04775        47.58133         0.17906
O         35.08674        33.10547        -2.14168
H         35.87027        32.73487        -2.59803
O         52.14681        30.34576         1.26995
H         52.93205        29.77437         1.15259
O         35.84501        43.08821        -2.33118
H         35.22696        43.12911        -3.09182
O         37.48487        35.22436         2.07658
H         38.29795        35.33739         2.61498
O         46.05310        40.25754         2.69115
H         45.52512        39.62649         3.24716
O         44.88601        31.33057         2.09856
H         45.09549        30.39240         2.31805
O         34.86743        36.47291        -1.44249
H         35.22246        35.78289        -2.04887
O         41.56147        42.37252        -1.28992
H         41.37863        42.70953        -2.19619
O         41.21705        27.51325         1.95445
H         40.60285        27.78051         2.67196
O         39.27953        35.80256        -1.10590
H         38.55631        35.47525        -1.69099
O         47.90034        37.75183        -1.26734
H         47.66532        38.70220        -1.42375
O         48.73939        37.57221         1.96435
H         48.99245        36.62832         2.08150
O         39.37248        44.72291         1.50291
H         38.59322        44.57325         2.08561
O         46.13489        39.84936        -0.92007
H         46.14358        40.81865        -1.07378
O         50.97631        38.76302        -1.94567
H         50.75078        37.91953        -2.40345
O         33.32194        43.56244         1.37556
H         33.41221        43.05142         2.21260
O         46.27145        42.90556         2.72218
H         46.25576        42.05706         3.22919
O         39.70520        31.63796        -1.48400
H         40.37038        32.13025        -2.01389
