         344
 CSIRO Nanostructure Databank - Neutral Graphene Oxide Data Set
C          1.19780         3.43493        -0.55514
C          0.00982         4.10818        -0.79755
C          1.16406         6.26412        -0.82471
C         -0.01300         5.50533        -0.92920
C          1.16368         7.71693        -0.88561
C         -0.04992         8.44109        -0.84141
C          1.15021        10.56034        -0.73912
C         -0.05366         9.81976        -0.73647
C          1.07075        12.01859        -0.48985
C          0.14558        12.63727         0.37117
C          1.17345        14.82537        -0.04083
C          0.14318        14.03356         0.49887
C          1.09161        16.31087        -0.33220
C         -0.08195        17.02394         0.26876
C          1.21881        19.07667         0.55316
C         -0.03031        18.33237         0.59032
C          1.22910        20.51715         0.81356
C          0.05545        21.23833         1.05593
C          1.24970        23.36242         1.19767
C          0.07468        22.62473         1.28828
C          1.34123        24.80866         1.65412
C          0.04574        25.58148         1.66883
C          1.24019        27.69845         1.37663
C          0.03124        26.93193         1.60168
C          1.23588        29.09396         1.37969
C          3.64078         3.45351        -0.27315
C          2.41967         4.14685        -0.44968
C          3.61052         6.31416        -0.54830
C          2.40359         5.58455        -0.59019
C          3.64407         7.70215        -0.79721
C          2.39281         8.44081        -0.91056
C          3.70956        10.58523        -0.79882
C          2.37467         9.86736        -0.90665
C          3.83464        11.90740        -1.51166
C          1.99363        12.88044        -1.10474
C          3.45756        14.97846        -1.21900
C          2.23801        14.19777        -0.71881
C          3.57084        16.34383        -0.52379
C          2.42988        16.99881        -0.11543
C          3.68642        19.09499         0.44892
C          2.39830        18.39981         0.27327
C          3.69692        20.56555         0.56922
C          2.46220        21.25002         0.75507
C          3.67634        23.39277         0.65176
C          2.45940        22.67456         0.87964
C          3.63920        24.88611         0.39449
C          2.44700        25.59017         0.99016
C          3.65152        27.75477         0.77873
C          2.45576        26.98715         1.06140
C          3.59936        29.16763         0.76889
C          2.39922        29.82015         1.07609
C          6.08984         3.45310        -0.07786
C          4.87209         4.12464        -0.18751
C          6.11277         6.21026        -0.77312
C          4.88317         5.63581        -0.08340
C          6.13241         7.71823        -0.71278
C          4.91275         8.37682        -0.84402
C          6.19039        10.57780        -0.95429
C          4.92306         9.80550        -1.28492
C          6.17349        12.00352        -1.00023
C          4.92940        12.70413        -1.31592
C          6.11061        14.91372        -0.93095
C          4.79852        14.18967        -1.07841
C          6.14997        16.39435        -0.83673
C          4.82279        17.14335        -0.84046
C          6.16460        19.20115        -0.17007
C          4.93270        18.40370        -0.01253
C          6.15292        20.58197         0.14315
C          4.89594        21.27633         0.42801
C          6.10763        23.43204        -0.01457
C          4.86324        22.70486         0.43678
C          6.15597        24.90337         0.31914
C          4.93049        25.58791         0.84684
C          6.05785        27.77345         0.27350
C          4.89676        27.07601         0.56829
C          6.09664        29.20928         0.25938
C          4.81730        30.00017         0.42741
C          8.55102         3.47335         0.21283
C          7.34177         4.15117        -0.03750
C          8.57675         6.27938        -0.27038
C          7.37565         5.55594        -0.29036
C          8.58647         7.71354        -0.48249
C          7.37468         8.42303        -0.69194
C          8.63894        10.58488        -0.74005
C          7.39556         9.87319        -0.79255
C          8.62355        12.02277        -0.84776
C          7.39163        12.71165        -0.95791
C          8.67306        14.91449        -1.16752
C          7.36114        14.15617        -1.41583
C          8.64649        16.39890        -0.89398
C          7.33142        17.08057        -0.72442
C          8.60083        19.19637        -0.28230
C          7.36450        18.51465        -0.43448
C          8.59221        20.59980        -0.03845
C          7.36913        21.28454         0.13228
C          8.61716        23.47742         0.07218
C          7.36644        22.74436         0.49184
C          8.58915        24.87694        -0.03831
C          7.31943        25.58244         0.12323
C          8.58206        27.76584        -0.06366
C          7.27552        27.04381        -0.22784
C          8.56428        29.19402        -0.01076
C          7.29944        29.87447         0.12259
C         10.99469         3.48347         0.46575
C          9.78519         4.16375         0.22198
C         11.03128         6.29102        -0.05682
C          9.80372         5.58947        -0.01057
C         11.03732         7.68980        -0.32287
C          9.83385         8.41093        -0.47129
C         11.10596        10.53921        -0.57562
C          9.86436         9.85598        -0.62514
C         11.16021        12.01192        -0.89484
C          9.85603        12.76074        -0.80216
C         11.11852        14.89457        -0.55991
C          9.89921        14.15781        -0.82108
C         11.10586        16.32826        -0.38574
C          9.87949        17.06039        -0.42548
C         11.04252        19.17925         0.03645
C          9.85327        18.47523        -0.22630
C         11.05572        20.60238         0.10380
C          9.83504        21.32294         0.05397
C         11.08202        23.44818         0.01174
C          9.84733        22.75209         0.03848
C         11.10160        24.90730        -0.39473
C          9.78916        25.62720        -0.18982
C         11.05612        27.77849        -0.53612
C          9.77791        27.04045        -0.19727
C         11.02575        29.24889        -0.18018
C          9.77755        29.90542        -0.03614
C         13.40010         3.50684         0.90543
C         12.24346         4.16592         0.50076
C         13.49627         6.27504         0.12679
C         12.27356         5.58873         0.16868
C         13.56165         7.66668        -0.12176
C         12.34101         8.36414        -0.65610
C         13.55504        10.51666        -0.21410
C         12.32964         9.84913        -0.42649
C         13.54036        11.96729         0.06445
C         12.27130        12.72685        -0.16687
C         13.54160        14.86183        -0.02454
C         12.32371        14.19805        -0.28861
C         13.54854        16.29450         0.00639
C         12.32747        16.99713        -0.08521
C         13.54814        19.21728         0.18024
C         12.28704        18.42387         0.40362
C         13.53737        20.58372         0.28750
C         12.28597        21.32040         0.26377
C         13.52869        23.48652         0.47971
C         12.27598        22.73468         0.21302
C         13.51801        24.98897         0.48787
C         12.27561        25.70147         0.13134
C         13.50268        27.82879         0.07588
C         12.30583        27.07843        -0.04522
C         13.49459        29.24459        -0.12656
C         12.23012        29.93316        -0.12431
C         15.93662         3.50379         1.18919
C         14.64832         4.29448         1.19015
C         15.99168         6.28937         0.52545
C         14.76883         5.46702         0.21938
C         15.99482         7.68408         0.32606
C         14.77511         8.38303        -0.00925
C         16.02424        10.53792         0.07375
C         14.78330         9.81720        -0.07633
C         16.02791        12.00076         0.12354
C         14.80669        12.71252         0.11811
C         16.00666        14.84384         0.32154
C         14.78146        14.13024         0.15818
C         15.98408        16.28443         0.32398
C         14.80200        16.99162         0.16930
C         16.04601        19.22311         0.25067
C         14.81408        18.47166        -0.15949
C         16.07605        20.61960         0.25898
C         14.80713        21.33936         0.63205
C         15.98611        23.50141         0.09949
C         14.81979        22.80139         0.27532
C         15.97990        24.97242         0.06276
C         14.79982        25.68335         0.28787
C         16.00164        27.83850        -0.14278
C         14.80203        27.17435         0.47891
C         15.94641        29.23945        -0.40991
C         14.70365        29.94048        -0.27992
C         18.41449         3.47665         1.18904
C         17.12572         4.16196         1.11891
C         18.36331         6.33654         1.09992
C         17.15782         5.62048         0.93194
C         18.41822         7.71047         0.79124
C         17.21811         8.40194         0.43622
C         18.51782        10.50377         0.18809
C         17.21923         9.81653         0.21823
C         18.52675        12.00753         0.23038
C         17.23700        12.72981         0.28403
C         18.52902        14.85413         0.47507
C         17.24345        14.13631         0.40866
C         18.55555        16.26960         0.44170
C         17.26615        16.99241         0.57803
C         18.56077        19.24800         0.40383
C         17.27762        18.49157         0.55509
C         18.48136        20.56589        -0.35276
C         17.27597        21.35115         0.10115
C         18.44313        23.48562        -0.23766
C         17.27309        22.78748         0.00538
C         18.38363        24.91582        -0.72332
C         17.18836        25.67905        -0.22296
C         18.38048        27.79028        -0.80152
C         17.18333        27.09955        -0.36582
C         18.31995        29.19703        -1.05200
C         17.10436        29.89847        -0.86134
C         19.55624         4.15295         1.41098
C         20.84767         6.31641         1.39823
C         19.54759         5.62968         1.71904
C         20.89633         7.62094         1.06178
C         19.69625         8.41275         0.81934
C         20.98066        10.54123         0.51696
C         19.75009         9.76954         0.55162
C         20.99077        11.89150         0.58676
C         19.72848        12.66917         0.87169
C         20.96549        14.85746         0.53226
C         19.75891        14.15042         0.55739
C         20.98239        16.24608         0.41899
C         19.78521        16.97487         0.40394
C         20.98169        19.17233        -0.25753
C         19.85104        18.46364         0.33250
C         20.95908        20.57518        -0.31734
C         19.78201        21.31544        -0.28117
C         20.80845        23.51257        -1.01710
C         19.80181        22.81868        -0.11572
C         20.79669        24.84407        -1.16021
C         19.70699        25.66138        -0.49868
C         20.75366        27.81896        -1.33336
C         19.61808        27.10864        -0.94672
C         20.68488        29.19724        -1.62177
C         19.49283        29.87996        -1.48079
O          2.73466        12.38323        -2.19171
O         18.74563        11.33588        -1.03513
O         17.20732        17.76668         1.83713
O          5.41842        14.38914         0.25226
O          4.55548        18.34055         1.39537
O         12.58519        12.27297         1.17691
O         19.38872        19.19868         1.56677
O          8.89067        15.86769        -2.27071
O         13.45111        24.21907         1.76071
O          0.89051        16.37765        -1.76041
O          5.99432         5.87159        -2.19200
H          6.83580         6.11555        -2.63094
O         18.23738        24.84064        -2.18682
H         17.32618        24.53359        -2.37867
O          1.75920        24.70151         3.07245
H          2.00288        25.60243         3.37569
O         14.97405         4.88781        -1.10682
H         15.17986         5.61997        -1.72501
O         14.48052         4.86401         2.52672
H         14.46074         4.12560         3.17033
O         14.78974        21.33251         2.10355
H         15.53706        21.88500         2.41753
O          3.59035        25.04759        -1.06204
H          2.73652        24.68201        -1.37674
O         18.26062        20.17433        -1.76420
H         18.28561        20.99124        -2.30599
O         11.13956        27.71306        -2.01361
H         10.38528        28.23064        -2.36987
O          4.65497        17.59479        -2.22212
H          4.21480        16.84967        -2.71158
O          5.01186        25.46391         2.29886
H          5.37307        24.57474         2.50842
O         12.22055        18.27852         1.88291
H         12.36503        19.16819         2.27296
O          5.00791         5.95497         1.33395
H          4.25915         5.53171         1.80353
O         19.93841        25.70671         0.94331
H         20.71736        26.27906         1.10626
O          3.21405        15.29927        -2.61468
H          2.29114        15.71024        -2.59940
O         11.54881        12.09351        -2.31098
H         10.85524        11.64665        -2.84101
O         14.91187        27.39026         1.94881
H         15.69317        26.88467         2.25940
O         20.24715        23.02326         1.26277
H         20.17085        23.99692         1.43708
O          4.82051         9.78395        -2.74254
H          5.54996         9.22960        -3.09028
O         19.38332         5.73155         3.17770
H         19.33239         6.68557         3.39872
O          6.10887        23.37451        -1.46835
H          5.32494        23.88932        -1.76977
O          7.08608        27.02565        -1.70545
H          7.68735        26.33798        -2.06550
O          7.30364        22.84477         1.95231
H          8.06248        22.34647         2.32309
O         19.48041        12.57505         2.31247
H         20.15110        13.12149         2.77327
O          7.20576        14.05297        -2.86033
H          7.65564        14.83963        -3.25109
O         14.84467        18.46766        -1.64588
H         14.95058        19.39593        -1.94583
O         11.32839        24.87908        -1.85669
H         11.29013        25.82084        -2.16650
O          3.89708        10.88986         0.61279
H          3.84575        10.04904         1.11433
O         12.45481         8.21478        -2.13756
H         12.43513         7.25190        -2.32784
O          4.99382        31.04443         1.39908
H          5.17756        30.62623         2.26512
H          1.20520         2.34004        -0.45548
H         -0.92928         3.54450        -0.88847
H         -0.97568         5.99580        -1.12540
H         -1.00978         7.90782        -0.82909
H         -1.00970        10.35385        -0.64537
H         -0.61610        12.03884         0.89175
H         -0.67311        14.51220         1.05882
H         -1.04497        16.49314         0.29349
H         -0.94399        18.83823         0.93244
H         -0.91385        20.72599         1.10675
H         -0.87293        23.11648         1.54767
H         -0.89199        25.04487         1.87107
H         -0.91707        27.48185         1.70180
H          0.30425        29.63122         1.60927
H          3.62689         2.35255        -0.25851
H          2.37578        30.91883         1.08766
H          6.09857         2.35367        -0.01834
H          4.60792        30.52432        -0.54785
H          8.53950         2.38906         0.39839
H          7.30532        30.97413         0.16283
H         10.97066         2.40463         0.68059
H          9.76520        30.99773         0.09893
H         13.33736         2.45439         1.22579
H         12.22953        31.02855        -0.01271
H         15.90962         2.41350         1.34360
H         14.68601        31.02729        -0.44645
H         18.42727         2.38443         1.05169
H         17.06842        30.97770        -1.07275
H         20.51756         3.61993         1.46961
H         21.78083         5.75448         1.55674
H         21.87499         8.10272         0.92225
H         21.93800        10.00738         0.42221
H         21.95749        12.41411         0.55412
H         21.92398        14.32695         0.60718
H         21.94681        16.77110         0.39909
H         21.89314        18.62865        -0.54358
H         21.91746        21.10200        -0.45184
H         21.59225        22.91253        -1.50490
H         21.54947        25.33512        -1.79540
H         21.72458        27.31033        -1.41869
H         21.59244        29.72692        -1.94283
H         19.44004        30.95888        -1.68534
