         762
 CSIRO Nanostructure Databank - Neutral Graphene Oxide Data Set
C         23.60016        24.33969        -2.33244
C         22.44546        25.17812        -1.90189
C         23.38128        27.13535        -3.12375
C         22.29872        26.42912        -2.37439
C         23.34217        28.62590        -3.34144
C         22.08147        29.33131        -3.02342
C         23.26183        31.42698        -2.59910
C         22.04410        30.64405        -2.72895
C         23.16313        32.85243        -2.31363
C         21.99735        33.48688        -1.97647
C         23.03207        35.69394        -1.73899
C         21.91728        34.91738        -1.78221
C         22.97428        37.18798        -1.48555
C         22.04825        37.56928        -0.34545
C         23.02977        39.85298        -0.36353
C         22.04277        38.81449         0.15061
C         23.17192        41.08070         0.52852
C         22.04384        41.48600         1.24767
C         23.32585        43.25315         2.23477
C         22.13373        42.53207         2.15909
C         23.28140        45.48832         2.68865
C         22.07453        46.12229         2.71831
C         23.00702        48.11987         1.69562
C         21.92250        47.42683         2.13381
C         26.12667        23.03915        -2.95507
C         25.75589        24.30570        -2.26138
C         24.70685        25.11432        -2.96211
C         25.96709        27.20443        -2.89230
C         24.70093        26.45840        -3.05375
C         25.93050        28.71946        -3.00678
C         24.64015        29.46728        -3.44571
C         25.71970        31.57186        -2.50448
C         24.49736        30.82561        -2.76828
C         25.68700        32.98095        -2.43056
C         24.37478        33.69716        -2.64178
C         25.59833        35.82036        -1.90498
C         24.34490        35.01882        -1.90316
C         25.49490        37.28208        -1.70517
C         24.33355        37.85509        -1.29102
C         25.46676        40.12563        -0.90732
C         24.38464        39.14988        -0.49898
C         25.58073        41.36834        -0.09757
C         24.38468        41.83385         0.60396
C         25.67587        43.87693         1.46636
C         24.42534        43.02875         1.38402
C         25.69874        45.35648         1.72992
C         24.54268        46.11391         2.24662
C         25.55153        48.35975         1.41890
C         24.36518        47.60694         1.90153
C         25.51913        49.78609         1.49731
C         28.43179        23.14495        -2.15040
C         27.33444        22.46647        -2.82516
C         28.26770        24.46168        -1.73338
C         26.89566        25.11158        -1.59990
C         28.09082        27.31687        -1.59852
C         27.00878        26.56407        -2.07538
C         28.06434        28.77296        -1.69580
C         26.99473        29.43896        -2.27223
C         28.11384        31.63253        -1.97117
C         26.93051        30.88779        -2.22917
C         28.11045        33.02927        -2.15314
C         26.89106        33.72062        -2.33392
C         28.05490        35.89544        -2.28570
C         26.88484        35.17861        -2.28863
C         28.02686        37.37892        -2.17827
C         26.72066        38.08304        -1.92561
C         27.98418        40.18487        -1.26132
C         26.71066        39.52002        -1.49958
C         27.98353        41.50504        -0.70128
C         26.78643        42.03882        -0.03366
C         28.17237        44.09814         0.67489
C         26.90708        43.27359         0.80438
C         28.12717        45.57016         0.84635
C         26.72987        46.18263         0.95399
C         27.99034        48.44403         1.36868
C         26.74271        47.66978         1.28625
C         27.94372        49.92077         1.43085
C         26.67900        50.54096         1.47911
C         31.01858        20.43200        -1.94758
C         29.83429        21.08600        -2.23029
C         30.81118        23.19988        -1.46762
C         29.69212        22.46950        -1.97446
C         30.64561        24.57511        -1.14440
C         29.38840        25.22712        -1.26582
C         30.31831        27.41038        -0.40552
C         29.22592        26.63313        -1.02212
C         30.29459        28.92144        -0.42136
C         29.02856        29.63501        -0.87433
C         30.50167        31.68402        -1.29451
C         29.30533        30.98310        -1.49893
C         30.62048        33.07142        -1.70193
C         29.40581        33.71922        -2.26232
C         30.64571        35.98668        -2.32070
C         29.35890        35.22392        -2.48886
C         30.59643        37.51977        -2.30816
C         29.26575        38.10993        -1.87143
C         30.43623        40.20548        -1.46266
C         29.20659        39.46698        -1.51753
C         30.32955        41.66571        -1.46649
C         29.16212        42.25579        -0.79322
C         30.42977        44.44581        -0.50079
C         29.35481        43.53655        -0.10280
C         30.61708        45.67452         0.36238
C         29.25813        46.31618         0.64949
C         30.41969        48.61149         0.55691
C         29.28117        47.75284         1.00173
C         30.40849        50.04198         0.99102
C         29.16911        50.64922         1.55002
C         30.47169        52.69767         1.93885
C         29.24665        51.98250         1.94469
C         33.22797        19.02782        -0.60493
C         33.43285        20.38784        -1.23163
C         32.13536        21.13524        -1.44242
C         33.30072        23.28204        -0.97895
C         32.05899        22.51532        -1.25813
C         33.15838        24.75633        -0.68812
C         31.77833        25.29321        -0.53552
C         32.84367        27.56679         0.01565
C         31.63549        26.73966        -0.17311
C         32.76845        28.95300         0.01321
C         31.58313        29.66198        -0.38628
C         32.89917        31.77138        -0.54038
C         31.66111        31.02308        -0.71712
C         32.96312        33.15256        -0.89680
C         31.79532        33.79040        -1.48076
C         33.02590        36.02367        -1.36585
C         31.86885        35.23450        -1.84570
C         32.95437        37.42405        -1.29570
C         31.77154        38.15147        -1.58707
C         32.87224        40.39292        -1.30600
C         31.68943        39.57779        -1.46334
C         32.86706        41.77665        -1.45157
C         31.57932        42.48116        -1.63712
C         32.85289        44.72083        -1.32932
C         31.52029        43.95029        -1.32071
C         32.87105        46.04503        -0.71489
C         31.71246        46.62008        -0.13340
C         32.79363        48.93240        -0.28907
C         31.69321        47.97998         0.16526
C         32.91447        50.17619         0.56652
C         31.74532        50.62350         1.40955
C         32.95997        52.80563         1.72654
C         31.69013        52.11437         1.63313
C         33.03580        54.12906         2.23017
C         35.51526        19.05706         0.26383
C         34.23707        18.40130         0.03259
C         35.58793        20.43704         0.06674
C         34.48320        21.17239        -0.47360
C         35.58672        23.30256         0.12556
C         34.49559        22.56376        -0.46455
C         35.50829        24.78439         0.17782
C         34.23387        25.48996        -0.01157
C         35.17968        27.59988         0.81645
C         34.09505        26.86968         0.28038
C         35.12851        29.04947         1.03940
C         33.90295        29.76909         0.50422
C         35.25962        31.85720         0.27214
C         34.03263        31.16223         0.05853
C         35.32605        33.24116        -0.10614
C         34.18596        33.86167        -0.68667
C         35.53350        36.07115        -0.74385
C         34.26591        35.27948        -1.10945
C         35.43001        37.53945        -0.61192
C         34.11017        38.16781        -0.72943
C         35.32455        40.41814        -0.81733
C         34.06996        39.71207        -0.80026
C         35.35208        41.77606        -1.33435
C         34.08959        42.54941        -1.37771
C         35.38370        44.66407        -1.34876
C         34.12275        43.94188        -1.41263
C         35.36073        46.15394        -1.36238
C         34.05283        46.86790        -0.99633
C         35.30643        48.94380        -0.48804
C         34.12035        48.23825        -0.48290
C         35.32878        50.31267         0.03403
C         34.11630        50.86224         0.66625
C         35.44502        52.81666         1.60549
C         34.15679        52.13694         1.36262
C         35.48118        54.21235         2.12034
C         34.24430        54.80795         2.39091
C         37.70608        16.18501         1.33018
C         36.59723        16.90275         0.92225
C         37.83412        18.97742         1.18173
C         36.64697        18.31099         0.78219
C         37.98440        20.43065         0.95413
C         36.82679        21.18364         0.36246
C         37.82451        23.29164         1.27774
C         36.74214        22.64440         0.57856
C         37.59340        24.68788         1.69718
C         36.56876        25.49656         0.98150
C         37.47453        27.70843         1.96656
C         36.29747        26.89374         1.42244
C         37.56780        29.12260         1.57334
C         36.41077        29.79831         1.13694
C         37.65977        31.91543         0.99703
C         36.42876        31.18452         0.80626
C         37.65313        33.32334         0.81390
C         36.52924        34.00176         0.23060
C         37.66342        36.25120         0.53972
C         36.56833        35.39854         0.04056
C         37.77887        37.65384         0.09538
C         36.54927        38.29145        -0.25300
C         37.84836        40.52697        -0.26254
C         36.49860        39.76798        -0.26739
C         37.89095        41.88666        -0.78459
C         36.67312        42.54056        -1.26993
C         37.88978        44.71749        -1.32993
C         36.59477        44.00778        -1.26839
C         37.89059        46.22983        -1.27823
C         36.59404        46.92383        -1.11127
C         37.82741        49.05079        -0.89693
C         36.55751        48.27121        -0.82117
C         37.77827        50.51658        -0.52145
C         36.49382        51.04048         0.00961
C         37.75141        53.15634         0.30456
C         36.61627        52.28050         0.80496
C         38.03284        54.45602         2.32287
C         36.70863        54.99501         2.23099
C         37.79933        57.18470         1.92375
C         36.65751        56.40303         2.03973
C         40.20763        14.70177         1.55433
C         40.16019        16.08371         1.83556
C         38.91144        16.83326         1.68675
C         40.09413        18.97898         2.23029
C         38.92315        18.24913         1.69652
C         40.14728        20.45223         2.09702
C         39.07727        21.17981         1.62384
C         40.11590        23.38208         2.30386
C         39.00171        22.63361         1.71436
C         39.97996        24.75212         2.56374
C         38.69616        25.44999         2.39375
C         40.00545        27.72102         2.43301
C         38.71197        26.96815         2.39993
C         40.02517        29.12723         1.99297
C         38.85171        29.79177         1.60166
C         40.14220        31.87518         1.33096
C         38.87893        31.21300         1.32484
C         40.16157        33.34831         1.37702
C         38.85239        34.08273         1.21897
C         40.21735        36.22940         0.79148
C         38.92172        35.56807         1.03202
C         40.24172        37.61542         0.45536
C         39.01837        38.33779         0.19910
C         40.31408        40.41066        -0.22198
C         39.09612        39.74484        -0.12007
C         40.37413        41.79926        -0.75665
C         39.11872        42.59319        -0.84940
C         40.39218        44.75085        -1.08404
C         39.13214        43.97026        -1.04477
C         40.32395        46.13457        -0.44870
C         39.11973        46.94271        -0.86696
C         40.35579        49.01862        -0.50526
C         39.11419        48.30498        -0.76163
C         40.31031        50.50208        -0.50550
C         39.05357        51.18862        -0.13330
C         40.33325        53.17054         0.67381
C         39.08388        52.47288         0.36016
C         40.38890        54.44306         1.47837
C         39.14737        55.18796         1.84211
C         40.31809        57.37768         1.66164
C         39.07912        56.59342         1.77267
C         40.29783        58.78535         1.70252
C         42.62171        14.71920         1.66338
C         41.42331        14.03305         1.46209
C         42.60663        16.07867         2.00921
C         41.37899        16.76416         2.08954
C         42.67179        18.91348         2.57688
C         41.37729        18.19731         2.44870
C         42.65026        20.37183         2.77308
C         41.44051        21.13686         2.27929
C         42.75833        23.25454         2.70524
C         41.43474        22.64816         2.35737
C         42.91294        24.50612         3.20024
C         41.03909        25.63840         3.03182
C         42.49200        27.67488         3.19906
C         41.26053        26.93822         2.64596
C         42.56942        29.15340         2.63204
C         41.29798        29.85144         2.14370
C         42.61222        31.90031         1.54184
C         41.36050        31.20558         1.55797
C         42.64565        33.31048         1.26973
C         41.42668        34.07708         1.15653
C         42.72221        36.11116         0.48665
C         41.41208        35.45267         0.86344
C         42.72186        37.62254         0.55800
C         41.50556        38.32391         0.36159
C         42.78650        40.42938         0.04066
C         41.53971        39.72427         0.05710
C         42.88749        41.85624        -0.25745
C         41.70174        42.51998        -0.85717
C         42.92636        44.79171        -0.63606
C         41.69602        44.02247        -1.01863
C         42.82584        46.24255        -0.34817
C         41.62176        46.91109        -0.44459
C         42.80111        49.09510         0.09323
C         41.55644        48.35283        -0.35580
C         42.87552        50.55355        -0.28583
C         41.58291        51.28770        -0.40099
C         42.75955        53.41503         0.13658
C         41.51422        52.63358         0.21560
C         42.84739        54.72174         0.76735
C         41.65012        55.25118         1.44536
C         42.78161        57.46018         1.51213
C         41.57353        56.72214         1.58465
C         42.71672        58.86767         1.57353
C         41.48676        59.51462         1.66803
C         45.05177        15.96309         2.77452
C         43.88592        16.78559         2.29115
C         45.13756        18.90869         2.93774
C         43.87160        18.24173         2.60828
C         45.28094        20.30768         2.85801
C         44.00221        21.06950         2.78742
C         45.29693        23.20731         2.27583
C         43.98697        22.49173         2.32200
C         45.26537        24.71994         2.40243
C         44.00462        25.42441         2.84086
C         45.14691        27.68475         2.73595
C         43.89544        26.92738         3.10938
C         45.04472        29.06578         2.20213
C         43.85937        29.77121         2.17089
C         45.05929        31.87613         1.58133
C         43.84119        31.18182         1.75461
C         45.09199        33.27931         1.40509
C         43.89305        33.99120         1.27597
C         45.16416        36.22499         1.32397
C         43.87697        35.47312         1.22967
C         45.20614        37.61430         0.81006
C         43.95321        38.31879         0.56807
C         45.24775        40.43760         0.20065
C         43.96518        39.72166         0.33172
C         45.28657        41.91414         0.33010
C         44.05587        42.57143        -0.02197
C         45.21964        44.79416         0.55685
C         44.14575        44.04415        -0.21645
C         45.29039        46.24218         0.10677
C         44.08278        46.94992        -0.14042
C         45.32214        49.06039        -0.15886
C         44.09530        48.36039        -0.13427
C         45.34639        50.52354        -0.19241
C         44.06771        51.22682        -0.27026
C         45.30998        53.42167         0.05377
C         44.06451        52.71792        -0.27140
C         45.30745        54.73315         0.50412
C         44.05470        55.40532         0.84247
C         45.28511        57.38865         1.55561
C         44.05907        56.76460         1.33259
C         46.05268        16.66013         3.57964
C         48.07623        19.20264         3.60022
C         46.11876        18.01729         3.54572
C         47.86737        20.44674         3.02328
C         46.54779        21.07991         2.83805
C         47.78570        23.20925         2.21377
C         46.54664        22.44595         2.54357
C         47.78105        24.71195         2.19696
C         46.54595        25.45608         2.59261
C         47.61396        27.62237         1.85445
C         46.48650        26.95966         2.57115
C         47.51524        28.91067         1.44274
C         46.34260        29.71419         1.88357
C         47.55095        31.80188         0.98488
C         46.36286        31.17868         1.63766
C         47.61437        33.21676         0.96934
C         46.41729        33.96376         1.44890
C         47.69558        36.13198         0.97167
C         46.45603        35.45922         1.41760
C         47.67792        37.49378         0.83309
C         46.43029        38.23054         0.70357
C         47.74973        40.39350         0.59775
C         46.50401        39.65606         0.33249
C         47.71611        41.84168         0.85714
C         46.47479        42.60486         0.56177
C         47.73697        44.75160         0.62363
C         46.54953        44.05910         0.52612
C         47.75812        46.26932         0.64694
C         46.50672        46.93860         0.11864
C         47.79280        49.03107        -0.52025
C         46.53187        48.32356        -0.15976
C         47.81449        50.50577        -0.26181
C         46.54824        51.21646        -0.18422
C         47.83989        53.44985        -0.09997
C         46.54416        52.72312        -0.46837
C         47.80436        54.72768         0.64506
C         46.55621        55.41520         0.82262
C         46.49893        56.71695         1.34281
C         50.31907        18.90250         2.68457
C         49.24521        18.40359         3.36281
C         50.43470        20.35290         2.56367
C         49.12438        21.16605         2.74194
C         50.28358        23.24042         2.06299
C         49.11515        22.56456         2.27067
C         50.41552        24.74775         2.21704
C         49.06793        25.48368         2.26649
C         50.00167        27.43632         0.93140
C         48.92479        26.90530         1.81343
C         49.80649        28.79050         0.30625
C         48.47801        29.54041         0.43961
C         49.80444        31.67756         0.04634
C         48.64894        31.03840         0.57755
C         49.85551        33.10488        -0.00312
C         48.76698        33.87048         0.52378
C         49.93430        36.00517        -0.11488
C         48.99009        35.33625         0.86207
C         50.09333        37.44678         0.00145
C         48.94384        38.22968         0.64796
C         50.18320        40.38392         0.38843
C         48.92503        39.69959         0.57332
C         50.26111        41.79087         0.57039
C         49.05051        42.55360         0.99947
C         50.31811        44.75191         0.50726
C         49.03398        44.05902         0.86845
C         50.29506        45.99314        -0.32923
C         49.04549        46.72517        -0.76526
C         50.35078        49.06449        -0.76882
C         49.06555        48.27298        -0.85426
C         50.28502        50.50899        -0.51589
C         49.01173        51.17980        -0.23078
C         50.31793        53.19360         0.60565
C         49.11608        52.65339        -0.07976
C         50.20841        54.48540         1.16708
C         49.01247        55.20655         1.18045
C         52.58798        20.37250         1.27019
C         51.54953        21.03349         1.86944
C         52.77556        23.24982         1.41271
C         51.57572        22.51050         1.99143
C         52.66506        24.69708         1.04795
C         51.45538        25.42531         1.33818
C         52.41583        27.47608         0.34466
C         51.33725        26.77939         0.95461
C         52.23985        28.79058        -0.17092
C         51.02051        29.50852        -0.12779
C         52.04723        31.60676        -0.99192
C         50.95611        30.92234        -0.40009
C         52.06933        33.03016        -1.12378
C         50.96685        33.75987        -0.63129
C         52.07564        35.93567        -1.55899
C         50.85780        35.20896        -0.89837
C         52.19599        37.45021        -1.51236
C         51.06087        38.26066        -0.80178
C         52.12092        40.53280        -0.96784
C         51.17064        39.69766        -0.38032
C         52.49360        41.78446        -0.44533
C         51.47030        42.46035         0.26332
C         52.85471        44.50681        -0.09017
C         51.58697        43.92323         0.43652
C         52.80920        45.86694        -0.68595
C         51.45877        46.38633        -0.90143
C         52.89651        48.99637        -0.67003
C         51.57728        48.54048        -1.12415
C         52.89353        50.43964        -0.28999
C         51.59447        51.21870        -0.22669
C         52.62825        52.78318         1.43507
C         51.51414        52.44559         0.60129
C         53.72005        21.06419         0.73774
C         55.05633        23.12708         0.36976
C         53.84734        22.43571         0.78828
C         55.04423        24.60356         0.36153
C         53.76277        25.33867         0.50388
C         54.91150        27.49058        -0.30563
C         53.80085        26.85984         0.55190
C         54.65881        28.77773        -1.02555
C         53.30321        29.38954        -1.00721
C         54.31370        31.48343        -2.25243
C         53.15801        30.79767        -1.52993
C         54.46264        32.96064        -1.97102
C         53.24612        33.72935        -1.66819
C         54.45671        35.84302        -2.40817
C         53.28747        35.11286        -1.73614
C         54.71802        37.19313        -1.72920
C         53.55739        38.02513        -1.58651
C         54.93910        40.06763        -1.24838
C         53.77936        39.41396        -1.69055
C         55.03687        41.48869        -0.96769
C         53.83448        42.32634        -0.74780
C         55.23056        44.42397        -0.74214
C         53.97190        43.68495        -0.57766
C         55.27051        45.86204        -0.23045
C         54.07126        46.70827        -0.65326
C         55.26301        48.75904         0.15867
C         54.04293        48.20207        -0.46335
C         55.21963        50.07890         0.70285
C         54.05836        50.97359         0.49523
C         53.80185        52.09145         1.42683
C         57.40834        23.12617        -0.37128
C         56.22549        22.45770         0.06538
C         57.42284        24.46334        -0.67618
C         56.23219        25.29215        -0.32289
C         56.63988        27.09707        -2.00727
C         55.96814        26.63211        -0.90881
C         56.77321        28.51393        -2.34128
C         55.63573        29.30697        -2.00929
C         56.79511        31.32871        -2.65451
C         55.62327        30.70553        -2.23734
C         56.96007        32.77677        -2.27041
C         55.65574        33.55297        -2.29385
C         57.08108        35.66950        -2.57841
C         55.73618        35.00543        -2.53715
C         57.16243        37.17586        -2.36622
C         55.96772        37.76597        -1.64360
C         57.43430        39.77178        -0.93130
C         56.08589        39.14703        -1.10466
C         57.53070        41.25209        -0.67703
C         56.30201        42.07240        -0.69162
C         57.74444        44.25117        -0.29431
C         56.46497        43.55154        -0.65529
C         57.82517        45.73397        -0.26232
C         56.58866        46.52361         0.05815
C         57.55025        48.64045         0.98930
C         56.49146        48.01409         0.30143
C         57.47899        49.92826         1.53348
C         56.30773        50.64232         1.38508
C         59.88039        25.06969        -0.38558
C         58.66166        25.16287        -1.08080
C         59.52406        27.13420        -2.31721
C         58.58127        26.12842        -2.09411
C         59.17772        28.24998        -3.31463
C         57.93358        29.06962        -2.90734
C         59.25850        31.27331        -3.40629
C         57.93019        30.52534        -3.12385
C         59.36365        32.71205        -3.09036
C         58.21557        33.47843        -2.76441
C         59.59566        35.53747        -2.70830
C         58.33309        34.86517        -2.58372
C         59.70359        36.93993        -2.46163
C         58.52541        37.62154        -1.86404
C         59.78810        39.81314        -2.02057
C         58.67239        39.02047        -1.34930
C         59.97200        41.24956        -1.56014
C         58.90330        41.93488        -0.80885
C         60.13204        44.14800        -1.24198
C         59.00931        43.43251        -0.62038
C         60.21781        45.56533        -1.02425
C         59.13454        46.27137        -0.37323
C         60.67147        48.20220        -0.11656
C         59.49129        47.54258         0.18063
C         60.89199        25.99627        -0.65583
C         60.70821        27.04586        -1.56730
C         60.41698        29.09487        -3.50856
C         60.47519        30.43156        -3.48190
C         60.61212        33.37361        -3.20209
C         60.73088        34.73553        -3.01870
C         60.94955        37.64604        -2.42799
C         61.03459        38.98219        -2.14612
C         60.96457        42.01134        -2.13907
C         61.05365        43.41999        -1.98920
C         61.39108        46.27835        -1.38037
C         61.59577        47.59052        -0.98805
O         44.97782        16.38331         1.38733
O         51.00165        51.30731        -1.55279
O         33.54051        24.29415        -2.02863
O         39.37488        33.77055         2.55508
O         47.64112        23.99334         0.94313
O         50.10033        21.01884         3.82297
O         37.58490        24.86218         3.14390
O         44.02817        44.49305        -1.59047
O         49.22597        26.58093         3.21434
O         48.30446        46.87941         1.64794
O         31.93975        44.72849        -2.49205
O         58.46826        41.35528         0.45292
O         34.09619        29.55792         1.95105
O         24.61223        23.90787        -1.29980
O         52.64605        23.01389         2.84930
O         36.69843        25.43793        -0.46374
O         34.51548        46.73085        -2.39524
O         37.95679        20.76551        -0.49221
O         26.46375        27.89779        -4.09983
O         43.24433        53.38269        -1.26500
O         46.65904        34.73602         2.68561
O         43.20423        20.89017         4.01743
O         37.78390        50.08857        -1.92499
O         58.34297        30.95840        -4.50267
O         44.26855        36.10208         2.48257
O         53.90491        51.27526        -0.94117
O         24.76359        47.19677         3.26055
O         58.88295        37.89624        -0.45754
O         50.93762        35.51766        -2.33901
O         23.10378        27.68741        -4.45186
O         56.08869        25.28036         1.13759
O         50.07909        37.80400         1.44324
O         49.82566        44.78709         1.87222
O         36.19394        41.93136        -2.53561
O         45.98351        39.96730        -1.01732
O         46.76374        26.21132         3.80346
O         51.09106        38.07264        -2.22997
O         48.74919        53.45731        -1.26034
O         53.60856        46.09620        -1.89135
O         27.23160        37.95990        -3.29673
O         36.48489        51.94560         2.21871
O         40.48077        18.51920         3.57776
O         23.38642        44.21392         3.24839
O         41.15767        41.81924        -2.01010
O         55.34142        28.76278         0.30880
O         29.99200        28.18532         0.81585
O         46.72069        30.65803         2.97283
O         29.47059        34.31304        -3.61643
O         49.54809        27.55156        -0.47053
O         36.37697        27.27785         2.82925
O         30.76126        42.18613        -2.80549
O         31.52623        25.68368         0.85789
O         57.36139        26.18914        -2.79210
O         37.00763        40.42203         0.95186
O         44.71988        27.50881         4.14239
O         48.33508        42.11331         2.18213
O         33.77825        38.96989         0.44897
O         56.75474        39.17496         0.21494
O         58.62810        43.74623         0.74742
O         52.61995        44.41926         1.35635
O         55.72944        45.90705         1.13628
O         37.99767        36.18943         1.97705
O         31.63565        35.51630        -3.28812
O         41.69420        21.94126         1.07820
O         56.37709        35.31911        -3.82499
O         41.90010        25.06344         3.96008
O         52.72209        40.17854        -2.16789
O         44.37303        25.28919         1.40743
O         38.02290        45.53770        -2.56419
O         55.98829        44.14834        -1.94285
O         35.33270        35.54445        -2.10172
O         29.23707        43.41745         1.40857
O         28.94757        47.92986         2.41425
O         52.74822        29.63790        -2.34760
O         40.92396        51.12482        -1.70055
O         58.75354        48.01124         1.26460
O         25.73012        40.30072        -2.31196
O         47.07936        18.60570         4.37279
O         41.31630        54.38671         2.63584
O         53.97739        36.13823        -3.67770
O         26.67337        43.07980         2.24152
O         48.17799        48.70762        -1.93446
O         39.15802        27.54585         3.66385
O         37.55420        54.16958        -0.34425
O         30.13242        49.70699        -0.40543
O         41.82315        29.99396         3.54587
O         51.45612        47.37014        -1.88392
O         25.11990        35.09145        -0.66819
O         44.61202        22.73859         1.04302
O         41.17587        44.54541        -2.28727
O         22.62308        40.30428        -1.68143
H         21.79500        40.81964        -1.58976
O         57.26924        32.68423        -0.81391
H         56.55827        32.16587        -0.37765
O         26.62356        25.16688        -0.17382
H         25.75722        24.72323        -0.02136
O         22.42530        37.76300        -2.70382
H         22.48555        38.74860        -2.61983
O         57.08260        37.79586        -3.68093
H         56.45602        37.24121        -4.20988
O         31.15472        45.21593         1.64302
H         30.50774        44.55705         2.00644
O         42.63823        49.12408         1.57346
H         43.51533        49.32448         1.96627
O         32.43897        49.39458        -1.63561
H         32.52749        48.63574        -2.25186
O         50.97714        24.84853         3.55667
H         50.78610        25.75489         3.89155
O         44.78494        44.80033         1.94663
H         45.52369        45.14015         2.49601
O         46.39387        52.79131        -1.91152
H         47.29952        52.92013        -2.28571
O         59.23981        39.97490        -3.38277
H         59.94898        40.32715        -3.96121
O         53.95447        31.47571        -3.66535
H         53.45824        30.64246        -3.83602
O         54.11715        27.17418         1.94099
H         54.73125        27.94372         1.93417
O         24.82375        29.79978        -4.83967
H         25.17450        28.99090        -5.27777
O         49.59233        35.30893         2.19557
H         48.86860        35.09577         2.82859
O         24.78148        38.74479         0.84346
H         24.14440        38.07044         1.16345
O         38.29468        53.28351         2.93596
H         39.26357        53.16879         3.02999
O         33.98105        20.15493        -2.56899
H         34.86910        19.75285        -2.46023
O         47.78379        29.39408        -0.83702
H         48.05907        28.52373        -1.21081
O         42.96960        35.78348        -0.92287
H         42.31138        36.26261        -1.46955
O         40.06993        45.81212         0.97200
H         40.19732        46.63188         1.49670
O         30.73159        37.92962        -3.70405
H         31.27838        37.24370        -4.15284
O         58.88077        27.61585        -4.58237
H         58.62333        28.32258        -5.21168
O         28.27669        29.97937         0.33256
H         28.49554        29.28405         0.99948
O         26.23200        46.11088        -0.45122
H         26.79463        46.69452        -1.00527
O         48.48359        46.18243        -1.88882
H         48.00476        46.91229        -2.36227
O         42.23710        27.78458         4.59682
H         43.02170        28.19770         5.02001
O         24.29183        34.03495        -4.05721
H         24.28723        33.19813        -4.56897
O         31.97037        50.01948         2.73602
H         32.77344        50.43108         3.12092
H         23.24580        23.42838        -2.88323
H         21.65311        24.71635        -1.29376
H         21.38709        26.99329        -2.12854
H         21.14563        28.76767        -3.14114
H         21.07415        31.13386        -2.57407
H         21.07190        32.91399        -1.82214
H         20.92296        35.36052        -1.62775
H         21.33403        36.82324         0.03715
H         21.34318        39.06246         0.96276
H         21.09122        40.94978         1.14759
H         21.29669        42.78773         2.82001
H         21.19960        45.60376         3.13035
H         22.88111        49.06207         1.14417
H         20.91168        47.83921         2.01123
H         25.33006        22.53188        -3.51872
H         24.54944        50.29041         1.60476
H         27.52361        21.50307        -3.31657
H         26.61063        51.63611         1.53611
H         31.10157        19.35839        -2.16208
H         28.99489        20.50437        -2.63194
H         30.42771        53.76289         2.20747
H         28.34248        52.51075         2.27770
H         32.27444        18.50265        -0.75597
H         32.11384        54.64830         2.52277
H         34.07952        17.38552         0.42014
H         34.21046        55.82572         2.80287
H         37.63686        15.09006         1.35967
H         35.68923        16.35187         0.64601
H         37.68328        58.27383         1.85342
H         35.67974        56.90008         1.98143
H         39.28332        14.14022         1.36872
H         39.34334        59.32458         1.76119
H         43.57632        14.19024         1.54739
H         41.44119        12.96360         1.21214
H         43.63575        59.46622         1.51612
H         41.45073        60.61216         1.70238
H         44.92166        14.87419         2.94181
H         45.31986        58.41917         1.93490
H         46.74620        16.09254         4.21254
H         47.42855        57.25549         1.56945
H         51.12159        18.24480         2.32388
H         49.18814        17.33710         3.62119
H         51.09505        54.95175         1.61772
H         49.02393        56.18425         1.68152
H         52.58059        19.27483         1.20998
H         52.51525        53.61251         2.14748
H         54.51873        20.45527         0.29280
H         54.56740        52.36281         2.16470
H         58.31197        22.52477        -0.54358
H         56.26373        21.36278         0.14504
H         58.34484        50.34196         2.06399
H         56.25273        51.66487         1.77531
H         60.01089        24.32187         0.40848
H         60.89903        49.16329         0.36146
H         61.83383        25.94057        -0.09295
H         61.49835        27.80224        -1.67307
H         61.34584        28.53272        -3.68857
H         61.45095        30.92145        -3.61250
H         61.51333        32.80493        -3.46507
H         61.71836        35.20135        -3.13402
H         61.88206        37.09299        -2.61343
H         62.01934        39.46893        -2.09613
H         61.72861        41.51595        -2.75704
H         61.88135        43.93294        -2.49579
H         62.18446        45.76410        -1.93805
H         62.52169        48.11251        -1.26331
