         204
 CSIRO Nanostructure Databank - Neutral Graphene Oxide Data Set
C        -10.94448         0.62267        -0.89309
C         -9.74750         1.39936        -0.58812
C         -8.54001         0.69369        -0.31912
C         -7.32536         1.42643        -0.10541
C         -6.09878         0.74858         0.06709
C         -4.91023         1.45466         0.34802
C         -3.67265         0.74409         0.50778
C         -2.46116         1.46124         0.69342
C         -1.22350         0.75374         0.81988
C          0.00266         1.47249         0.93407
C          1.26089         0.75100         0.92385
C          2.49979         1.44220         0.86917
C          3.71225         0.73464         0.68185
C          4.97006         1.43555         0.48486
C          6.11986         0.74804         0.13783
C          7.27843         1.46490        -0.50174
C          8.58443         0.72347        -0.43127
C          9.80039         1.45976        -0.64607
C         11.02739         0.70804        -0.78612
C         -9.75337         2.79797        -0.61140
C         -8.59129         3.55352        -0.30446
C         -7.36301         2.85127        -0.02620
C         -6.18252         3.55403         0.30180
C         -4.94648         2.88213         0.46951
C         -3.71011         3.60844         0.60985
C         -2.47031         2.89450         0.68412
C         -1.24037         3.60771         0.77960
C         -0.02706         2.89108         0.95150
C          1.21708         3.63521         1.21889
C          2.54084         2.90264         1.11175
C          3.76191         3.66834         0.75968
C          5.06565         2.90896         0.83350
C          6.22803         3.62703         0.19043
C          7.36783         2.92917        -0.17705
C          8.58667         3.61676        -0.49953
C          9.78190         2.85098        -0.72772
C         -8.59871         4.97206        -0.34040
C         -7.46241         5.72532        -0.00833
C         -6.26988         5.00836         0.48294
C         -4.95366         5.78133         0.59835
C         -3.69608         5.02371         0.55425
C         -2.47828         5.74152         0.46635
C         -1.23865         5.04917         0.63946
C         -0.03759         5.78943         0.65618
C          1.21552         5.12466         1.05752
C          2.52529         5.83486         0.78120
C          3.76128         5.03431         0.59688
C          4.97264         5.75887         0.22798
C          6.19738         5.04979         0.07465
C          7.39006         5.74456        -0.31777
C          8.58852         5.01629        -0.52630
C         -7.40563         7.13211        -0.12837
C         -6.19608         7.85423        -0.04765
C         -4.95415         7.19258         0.19799
C         -3.72627         7.86151         0.05915
C         -2.48436         7.15973         0.24490
C         -1.25762         7.85802         0.12860
C         -0.02158         7.17470         0.34054
C          1.22309         7.87411         0.14578
C          2.46693         7.20600         0.23753
C          3.67465         7.86284        -0.08199
C          4.92501         7.14624        -0.05763
C          6.13167         7.84272        -0.40531
C          7.33946         7.14842        -0.50196
C         -6.16004         9.26563        -0.33350
C         -4.97569         9.94105        -0.42609
C         -3.71411         9.26872        -0.25339
C         -2.49956         9.93921        -0.37724
C         -1.25789         9.26328        -0.20122
C         -0.03705         9.93283        -0.37237
C          1.20125         9.25848        -0.24116
C          2.42409         9.92641        -0.49655
C          3.64642         9.25111        -0.43848
C          4.88853         9.92677        -0.72115
C          6.07311         9.25457        -0.69864
C        -10.99016        -0.71331        -0.72206
C         -9.84705        -1.47658        -0.10285
C         -8.53415        -0.73353        -0.22288
C         -7.33641        -1.42902        -0.11461
C         -6.03100        -0.70708        -0.29786
C         -4.85625        -1.42736         0.29444
C         -3.67216        -0.69543         0.53186
C         -2.45506        -1.39699         0.77540
C         -1.22434        -0.67883         0.84952
C          0.00499        -1.39118         0.90059
C          1.24643        -0.67911         0.87092
C          2.47783        -1.40005         0.78709
C          3.68457        -0.68348         0.65458
C          4.97265        -1.39907         0.62121
C          6.17587        -0.68758         0.14108
C          7.33752        -1.37775        -0.17110
C          8.57339        -0.66718        -0.40433
C          9.81401        -1.41076        -0.55911
C         11.03115        -0.65460        -0.74082
C         -9.71748        -2.89420        -0.59472
C         -8.52263        -3.56572        -0.48362
C         -7.30725        -2.86136        -0.09613
C         -6.13035        -3.56901         0.18745
C         -4.89606        -2.83153         0.47533
C         -3.72132        -3.51463         0.85027
C         -2.47765        -2.82117         0.91220
C         -1.23459        -3.51928         1.01626
C         -0.01491        -2.82543         0.92993
C          1.22866        -3.55399         0.81623
C          2.46171        -2.85362         0.73643
C          3.66386        -3.58492         0.55876
C          4.95774        -2.89566         0.59439
C          6.16839        -3.62826         0.17370
C          7.30692        -2.86280        -0.45490
C          8.63361        -3.57589        -0.33469
C          9.83021        -2.79506        -0.51809
C         -8.36721        -4.94588        -0.86143
C         -7.23012        -5.66780        -0.56439
C         -6.12443        -5.01422         0.15899
C         -5.00486        -5.68896         0.68502
C         -3.86137        -4.93799         1.34330
C         -2.53640        -5.72679         1.35359
C         -1.22565        -4.99179         1.20135
C         -0.00799        -5.72800         0.78628
C          1.21036        -4.96981         0.64417
C          2.40909        -5.64031         0.30376
C          3.65412        -4.97410         0.30486
C          4.90607        -5.72515         0.19371
C          6.17008        -4.99233         0.19559
C          7.48161        -5.75297         0.24590
C          8.66727        -4.93455        -0.20363
C         -7.13481        -7.01731        -1.13981
C         -6.52948        -8.04104        -0.47932
C         -4.96910        -7.10833         0.78389
C         -3.80588        -7.88208         0.71168
C         -2.54398        -7.22197         1.11917
C         -1.23800        -7.92414         0.80851
C         -0.01861        -7.11702         0.58939
C          1.12797        -7.80058         0.08819
C          2.33920        -7.02362        -0.16021
C          3.65461        -7.77675        -0.38467
C          4.89857        -7.08983        -0.02484
C          6.15878        -7.91358         0.11528
C          7.36909        -7.13967        -0.32494
C         -6.08392        -9.35144        -0.90678
C         -4.91721        -9.89372        -0.44812
C         -3.79211        -9.23525         0.21633
C         -2.56192        -9.89766         0.05029
C         -1.29828        -9.27570         0.20701
C         -0.11176        -9.89536        -0.18531
C          1.12674        -9.18956        -0.19088
C          2.36576        -9.87700        -0.46658
C          3.59050        -9.24689        -0.44478
C          4.85830        -9.93052        -0.63208
C          6.04153        -9.28874        -0.49587
O          5.20623        -2.16518         1.86822
O          5.39302         2.90571         2.27263
H          4.55993         2.75718         2.77097
O          1.93486         3.21771         2.42361
O         -4.26778        -4.81615         2.74038
H         -3.43553        -4.77764         3.26901
O        -10.16336        -1.57153         1.33408
H         -9.43616        -2.07484         1.75859
O          7.74790        -5.95201         1.68950
H          7.08277        -6.61656         2.00621
O         -5.78057         5.48393         1.77703
O          1.93921         5.79161         2.13453
O          6.92827         1.45142        -1.94720
H          7.71996         1.76209        -2.43704
O          2.92085        -7.17198        -1.50739
O         -1.75437        -5.38773         2.53852
O         -5.78434        -0.72119        -1.76583
H         -6.54670        -0.26850        -2.18656
O         -6.19059        -7.77321         0.86292
O          6.98369        -2.90801        -1.90009
H          7.07928        -3.83937        -2.19455
O          6.28682        -8.19066         1.58865
H          7.03023        -8.82312         1.69442
O         -1.80529        -7.92188         2.16641
H         11.97547        -1.20808        -0.85229
H         11.96633         1.26142        -0.93487
H         10.72094         3.39128        -0.92081
H          9.51556         5.55910        -0.76343
H          8.25573         7.68820        -0.78424
H          7.01311         9.77686        -0.93004
H          4.85902        10.99865        -0.96554
H          2.40520        10.99256        -0.76763
H         -0.03949        10.99825        -0.64713
H         -2.49145        11.01231        -0.62041
H         -4.96849        11.01804        -0.64928
H         -7.11195         9.79335        -0.49198
H         -8.32214         7.67390        -0.40794
H         -9.51725         5.49226        -0.65161
H        -10.68734         3.33037        -0.84621
H        -11.82163         1.16375        -1.28026
H        -11.91186        -1.26978        -0.95067
H        -10.62403        -3.43579        -0.90553
H         -9.19825        -5.44027        -1.38603
H         -7.56348        -7.17409        -2.14070
H         -6.69933        -9.93066        -1.61216
H         -4.68358       -10.91141        -0.80281
H         -2.57434       -10.91008        -0.38331
H         -0.13556       -10.93688        -0.53949
H          2.32466       -10.96888        -0.60107
H          4.83344       -10.98443        -0.95078
H          6.97954        -9.83284        -0.68969
H          8.30921        -7.71388        -0.41476
H          9.64513        -5.44373        -0.19327
H         10.79397        -3.32459        -0.58149
