         244
 CSIRO Nanostructure Databank - Neutral Graphene Oxide Data Set
C          1.22939         1.97795        -0.20687
C          1.20984         3.37365        -0.23510
C          2.40179         1.28459         0.08089
C          2.36930         4.12279         0.07926
C          1.23235         6.31739        -0.25917
C          1.23615         7.70484        -0.35295
C          2.39251         5.57903         0.03533
C          2.41053         8.47207        -0.16808
C          1.26259        10.64327        -0.63775
C          1.30583        12.01122        -0.81904
C          2.40856         9.88119        -0.28862
C          2.54507        12.74570        -0.77089
C          1.40783        14.95715        -1.28664
C          1.45818        16.33408        -1.48166
C          2.58488        14.20227        -0.96297
C          2.62646        17.07619        -1.22626
C          2.72408        18.47116        -1.45820
C          3.58979         1.99242         0.38558
C          3.54301         3.41397         0.43552
C          4.84234         1.30399         0.47625
C          4.73184         4.15959         0.85568
C          3.62624         6.29367         0.27457
C          3.65930         7.76063         0.13159
C          4.77336         5.60391         0.63591
C          4.85525         8.43149         0.19544
C          3.65777        10.63520         0.10040
C          3.69913        12.04709        -0.43740
C          4.94245         9.87122        -0.27043
C          5.01292        12.68533        -0.51422
C          3.77724        14.89988        -0.75033
C          3.76258        16.38612        -0.52078
C          5.04728        14.19500        -0.65352
C          5.09735        17.06171        -0.70719
C          3.90506        19.15670        -1.25322
C          5.12414        18.47477        -0.89251
C          6.06304         1.97048         0.60767
C          6.06548         3.40756         0.96979
C          7.28916         1.32544         0.31600
C          7.32056         4.17236         0.85663
C          6.02998         6.34044         1.03928
C          6.14837         7.66558         0.28068
C          7.32812         5.55082         0.88040
C          7.30627         8.44682         0.88250
C          6.16100        10.64673         0.21071
C          6.19101        11.99203         0.07051
C          7.35127         9.95201         0.76233
C          7.40727        12.78028         0.53066
C          6.29644        14.90932        -0.29191
C          6.29582        16.36569        -0.47550
C          7.42306        14.21438         0.04572
C          7.48891        17.09097        -0.26235
C          6.33505        19.17716        -0.75138
C          7.52317        18.50883        -0.37011
C          8.53405         1.98818         0.36803
C          8.59364         3.36572         1.00363
C          9.71540         1.35134        -0.00734
C          9.81604         4.13816         0.59989
C          8.57402         6.28757         0.86661
C          8.59091         7.72567         0.91474
C          9.80641         5.58218         0.72118
C          9.77709         8.45501         1.03477
C          8.66583        10.61099         0.67776
C          8.70709        12.03355         0.16372
C          9.83026         9.89807         0.93008
C          9.95235        12.77790         0.60653
C          8.76564        14.89219        -0.11214
C          8.66527        16.35950         0.23424
C          9.95586        14.19797         0.51257
C          9.92864        17.12656         0.48869
C          8.75414        19.21721        -0.16735
C          9.94637        18.57236         0.17784
C         10.98605         2.02606         0.02306
C         10.95498         3.47705         0.22705
C         12.18817         1.37137        -0.16609
C         12.13538         4.25902        -0.18175
C         11.02531         6.29188         0.68327
C         11.03614         7.69660         1.13590
C         12.22020         5.67616         0.21339
C         12.34233         8.43356         1.20325
C         11.12590        10.60821         1.01803
C         11.09525        12.06405         0.98335
C         12.32309         9.91729         1.12681
C         12.33007        12.82529         1.26233
C         11.15729        14.94329         0.67063
C         11.19354        16.37351         0.54419
C         12.38429        14.25974         0.92325
C         12.39804        17.07779         0.58640
C         11.19320        19.23121         0.22182
C         12.40181        18.52863         0.45113
C         13.48052         2.09934         0.10451
C         13.42621         3.52312        -0.40664
C         14.77953         1.41536        -0.24146
C         14.65978         4.31098        -0.44768
C         13.44641         6.35255         0.14853
C         13.57948         7.70110         0.75388
C         14.63784         5.68169        -0.31517
C         14.83787         8.47567         0.51547
C         13.67228        10.55941         1.45660
C         13.64970        12.08138         1.38293
C         14.83392         9.94988         0.69948
C         14.86955        12.81054         0.99388
C         13.60981        14.94681         0.93767
C         13.63731        16.37262         0.75426
C         14.86431        14.22752         0.98184
C         14.86100        17.07655         0.76312
C         13.62876        19.20892         0.50476
C         14.85643        18.51477         0.65379
C         15.92277         2.11187        -0.51474
C         15.90516         3.58623        -0.88255
C         17.21172         1.46064        -0.53579
C         17.16275         4.31331        -0.51172
C         15.91123         6.42491        -0.69975
C         15.83023         7.97319        -0.52196
C         17.13271         5.74304        -0.04137
C         17.17897         8.61929        -0.27615
C         15.97462        10.66738         0.40140
C         16.04205        12.11295         0.63127
C         17.17066         9.98505        -0.06078
C         17.26144        12.82318         0.53608
C         16.09943        14.92608         0.89582
C         16.11309        16.37710         0.87118
C         17.30798        14.20569         0.76970
C         17.32224        17.07026         0.85485
C         16.08118        19.20279         0.66893
C         17.31121        18.50665         0.74578
C         18.40494         2.14444        -0.61690
C         18.44479         3.64655        -0.87479
C         19.66437         1.47339        -0.51011
C         19.61556         4.30218        -0.12397
C         18.42891         6.48817        -0.33085
C         18.41101         7.89816        -0.43683
C         19.64768         5.79205        -0.37131
C         19.64718         8.62112        -0.57324
C         18.34521        10.81291        -0.49066
C         18.56194        12.06767         0.36082
C         19.63466        10.04208        -0.63756
C         19.66814        12.92045        -0.21438
C         18.67021        14.82651         1.06086
C         18.65577        16.40457         1.16800
C         19.74267        14.26187         0.11377
C         19.79002        17.10822         0.43710
C         18.52559        19.21397         0.63532
C         19.74965        18.53175         0.38480
C         20.86271         2.16712        -0.48600
C         20.90335         3.58371        -0.42466
C         22.08704         4.31786        -0.57579
C         20.88406         6.47089        -0.54972
C         20.88237         7.91581        -0.65804
C         22.08544         5.71254        -0.61240
C         22.06696         8.66996        -0.83618
C         20.81505        10.76226        -0.84385
C         20.72377        12.26879        -1.08521
C         22.03242        10.05064        -0.94518
C         22.03915        12.99192        -0.99217
C         20.93664        14.99883        -0.14968
C         20.95170        16.43719        -0.01579
C         22.11137        14.27503        -0.56353
C         22.07590        17.19965        -0.43194
C         20.89895        19.26309        -0.01030
C         22.05470        18.59277        -0.39689
O          5.28835        13.29733        -1.82528
O         15.41841         8.51667        -1.76460
O          5.28676         3.74228         2.17308
O          7.05036         9.27243         2.03974
O         14.68108         7.72355         1.74434
O         12.56334         3.85137        -1.53883
O         12.97875        12.59717         2.57862
O          9.02021        16.73239         1.59543
O         19.05005        14.27428         2.31096
O         11.75076         7.88733         2.42517
O          5.89025         6.63255         2.44915
H          5.74603         5.77459         2.90836
O          5.06372         9.78642        -1.72406
H          5.16197        10.69854        -2.07732
O         18.67702         3.84972        -2.29530
H         17.82342         3.63323        -2.74656
O          8.73874        11.98151        -1.30091
H          9.53120        11.47009        -1.56997
O         13.54831         2.26800         1.57033
H         13.48815         1.37975         1.98077
O         20.29880        12.43885        -2.47863
H         19.38422        12.05369        -2.53879
O          9.02765        14.84474        -1.55665
H          8.90206        13.90344        -1.83241
O         19.03656        11.68238         1.66992
H         19.09437        12.55313         2.18034
O          6.52370         7.35275        -1.09164
H          6.15911         8.06416        -1.66975
O          8.71197         3.12997         2.44728
H          7.87972         2.70589         2.74780
O         17.93899        11.30374        -1.82182
H         17.42362        10.58887        -2.25873
O         16.10166         6.21380        -2.12446
H         15.79407         7.09192        -2.52183
O          7.40079        12.83915         1.97772
H          6.57383        13.26939         2.27793
O         19.31409         4.10909         1.30011
H         20.09909         4.39590         1.81361
O          3.66402        10.72500         1.55990
H          2.78930        11.06329         1.84400
O         15.91558         3.59891        -2.36120
H         15.82539         4.56400        -2.60845
O         16.93101         5.71701         1.39497
H         17.66970         5.18397         1.77546
O         18.90242        16.72494         2.56257
H         19.07584        15.82806         2.98132
O         13.90079        10.20675         2.84592
H         13.38392        10.84670         3.38786
O          3.47097        16.55842         0.93369
H          2.52681        16.32362         1.06361
H          0.31199         1.42149        -0.44487
H          0.27506         3.88147        -0.50594
H          2.41880         0.18600         0.05202
H          0.27945         5.79562        -0.41942
H          0.28740         8.20937        -0.58004
H          0.30126        10.13341        -0.79439
H          0.37513        12.53432        -1.07448
H          0.46213        14.43488        -1.48179
H          0.56750        16.85604        -1.86294
H          1.83695        19.00971        -1.82497
H          4.85128         0.22241         0.27326
H          3.94546        20.24160        -1.42811
H          7.25895         0.28002        -0.02829
H          6.34666        20.26892        -0.88682
H          9.68074         0.30117        -0.33639
H          8.76881        20.30235        -0.35057
H         12.20058         0.28253        -0.32931
H         11.23510        20.31699         0.04677
H         14.86230         0.34087        -0.00295
H         13.64325        20.30518         0.41131
H         17.23364         0.36744        -0.39328
H         16.08887        20.29955         0.57886
H         19.67001         0.37408        -0.45513
H         18.50693        20.31334         0.58482
H         21.81237         1.61135        -0.51507
H         23.03612         3.77846        -0.71405
H         23.04598         6.22828        -0.74349
H         23.03865         8.16314        -0.90914
H         22.97754        10.58649        -1.10509
H         22.93633        12.51538        -1.41117
H         23.08300        14.78837        -0.57825
H         22.97946        16.69496        -0.79746
H         20.85942        20.36158        -0.02446
H         22.94299        19.15940        -0.70835
