         480
 CSIRO Nanostructure Databank - Neutral Graphene Oxide Data Set
C         37.48317        49.99344        -0.12180
C         36.31804        50.65518        -0.28962
C         37.34671        52.80493         0.24314
C         36.22398        52.07100         0.01169
C         40.06526        48.59897         0.60700
C         39.97505        49.98137         0.37099
C         38.64876        50.68948         0.55394
C         39.81155        52.87296        -0.03673
C         38.65678        52.17225         0.21634
C         39.84232        54.31059        -0.27332
C         42.45686        48.62741         0.18578
C         41.27644        47.92099         0.44448
C         42.40019        50.03976         0.11303
C         41.14898        50.70241         0.11181
C         42.33524        52.90934         0.02842
C         41.09292        52.13724        -0.36546
C         42.29954        54.40946         0.02845
C         40.99293        55.02667        -0.29804
C         44.91005        45.81889         0.32297
C         43.80938        46.46402        -0.08947
C         44.97254        48.64588         0.32208
C         43.75607        47.95927        -0.25135
C         44.88968        50.12827         0.55567
C         43.64136        50.81106         0.04322
C         44.85619        52.95635        -0.28173
C         43.61935        52.17205        -0.07207
C         44.83825        54.45747        -0.29306
C         43.56609        55.18702        -0.07727
C         44.84125        57.27318        -0.10297
C         43.61293        56.55550        -0.00164
C         47.55840        44.35095         0.69312
C         47.43634        45.78770         0.99175
C         46.11950        46.52589         0.81337
C         47.36684        48.76058         0.94822
C         46.13748        48.00890         0.65999
C         47.42361        50.12970         0.71135
C         46.19325        50.80067         0.20473
C         47.35234        53.08382         0.27583
C         46.16999        52.25491        -0.09704
C         47.33902        54.52938        -0.05539
C         46.12421        55.19697        -0.15980
C         47.33624        57.36121        -0.29662
C         46.07592        56.63554        -0.19389
C         47.36311        58.75163        -0.46061
C         49.99945        44.39608         0.96692
C         48.75995        43.71541         0.69570
C         49.92885        45.83706         1.25242
C         48.67221        46.56709         1.09978
C         49.93144        48.82670         1.19241
C         48.60114        48.02085         1.30288
C         49.87254        50.25069         0.80303
C         48.66212        50.88432         0.66951
C         49.89752        53.12218         0.28807
C         48.64055        52.37850         0.56918
C         49.83739        54.52502        -0.02123
C         48.59493        55.22886        -0.09425
C         49.80866        57.34421        -0.48155
C         48.57571        56.64277        -0.28247
C         49.79037        58.76385        -0.62162
C         48.57371        59.43812        -0.61134
C         52.49868        41.63314         1.00024
C         51.31133        42.30483         0.99141
C         52.49716        44.46975         0.84213
C         51.24432        43.74040         0.95208
C         52.48679        45.88929         0.74857
C         51.26502        46.61499         1.12768
C         52.40558        48.78499         0.40658
C         51.14750        48.05705         0.77482
C         52.43654        50.26591         0.59142
C         51.14320        51.02005         0.74133
C         52.35824        53.11700         0.03974
C         51.11912        52.44866         0.33557
C         52.32065        54.50713        -0.33098
C         51.05803        55.22527        -0.31919
C         52.22020        57.31635        -1.18830
C         51.02431        56.60707        -0.58936
C         52.32029        58.75409        -0.76995
C         51.05426        59.56127        -0.86230
C         52.34693        61.37127         0.24876
C         51.14749        60.80766        -0.02531
C         55.06017        40.18588         1.04588
C         54.97221        41.60601         0.90066
C         53.75951        42.31345         0.87697
C         54.94469        44.48669         0.55824
C         53.72964        43.75674         0.73220
C         54.89536        45.88758         0.40279
C         53.68108        46.61216         0.46480
C         54.84995        48.80844         0.11521
C         53.69357        48.06611         0.35898
C         54.84589        50.24488        -0.01887
C         53.64745        50.98399         0.14998
C         54.86718        53.10312        -0.12543
C         53.59211        52.39035         0.03991
C         54.82114        54.55543        -0.53090
C         53.50404        55.19531        -0.70084
C         54.72206        57.28882        -1.10359
C         53.51355        56.58075        -0.99586
C         54.78978        58.70158        -0.92644
C         53.54183        59.39446        -0.62828
C         54.83646        61.41340        -0.04970
C         53.59279        60.75954        -0.16446
C         54.92422        62.73619         0.48604
C         57.52582        40.25713         1.20946
C         56.26849        39.53866         1.10293
C         57.50519        41.63646         1.09451
C         56.26121        42.29493         0.53848
C         57.41753        44.48844         0.57688
C         56.22962        43.79779         0.64356
C         57.38493        45.86206        -0.05097
C         56.17739        46.68008         0.43129
C         57.38026        48.78034        -0.11945
C         56.08436        48.03208        -0.29312
C         57.36582        50.23446        -0.03603
C         56.09006        50.97139        -0.23588
C         57.40236        53.16402        -0.30828
C         56.11259        52.34467        -0.33520
C         57.32259        54.48048        -1.07833
C         55.95270        55.05092        -1.41847
C         57.20564        57.32446        -1.76241
C         55.93986        56.56789        -1.53108
C         57.27161        58.75958        -1.33758
C         56.01564        59.40775        -0.95532
C         57.27781        61.47870        -0.43134
C         56.05353        60.77595        -0.50152
C         57.34091        62.76392         0.16398
C         56.12788        63.36909         0.62026
C         60.10188        37.47191         1.46333
C         58.86197        38.14772         1.36696
C         60.02370        40.28203         1.65348
C         58.77063        39.52607         1.42359
C         59.98476        41.77898         1.70045
C         58.64009        42.52138         1.56714
C         59.86713        44.56462         0.75202
C         58.69893        43.86075         0.85035
C         59.91087        46.06563         0.60806
C         58.62258        46.67551         0.15932
C         59.90641        48.73532        -0.09731
C         58.58673        48.06007         0.00862
C         59.96165        50.21108        -0.28617
C         58.68413        50.98518        -0.13322
C         59.76159        52.93002        -1.17329
C         58.63844        52.36100        -0.65467
C         59.71365        54.29545        -1.80466
C         58.44841        55.08704        -1.52539
C         59.71248        57.26593        -1.47750
C         58.49076        56.52975        -2.03329
C         59.75989        58.76587        -1.77950
C         58.46706        59.43707        -1.32256
C         59.80835        61.50903        -0.65497
C         58.49372        60.94620        -1.15864
C         59.82971        62.76303        -0.00455
C         58.60337        63.42132         0.36108
C         59.89064        65.28618         1.27886
C         58.68280        64.69590         0.97877
C         62.66548        36.03012         1.61033
C         62.59763        37.44003         1.56125
C         61.32516        38.14794         1.50351
C         62.52111        40.30218         1.35471
C         61.32510        39.58297         1.48057
C         62.51875        41.74289         1.18153
C         61.27568        42.52235         1.45534
C         62.36098        44.57113         0.34245
C         61.19314        43.96297         1.02799
C         62.26017        45.76131        -0.34199
C         61.06932        46.58548        -0.22632
C         62.14797        48.58861        -1.30511
C         61.03803        47.90603        -0.58984
C         62.21851        50.07375        -1.39439
C         61.08746        50.81890        -1.03495
C         62.20383        52.87704        -1.67528
C         61.01899        52.20364        -1.31783
C         62.17487        54.33661        -1.58847
C         60.99954        55.03472        -1.53594
C         62.27218        57.20483        -1.31161
C         60.98293        56.48951        -1.28254
C         62.27749        58.66965        -0.95569
C         60.99594        59.42869        -1.20985
C         62.32713        61.44426        -0.70774
C         61.02197        60.77183        -0.86889
C         62.30940        62.86760        -0.29485
C         61.07624        63.40940         0.30640
C         62.40425        65.25791         1.33264
C         61.12366        64.65326         0.95062
C         62.44291        66.36901         2.21144
C         65.10182        36.08832         1.71291
C         63.88386        35.37231         1.64480
C         65.04933        37.49875         1.74571
C         63.81417        38.17487         1.58740
C         64.97625        40.30124         1.09820
C         63.78983        39.61214         1.36822
C         64.94104        41.69421         0.69751
C         63.67155        42.40202         0.80066
C         64.87370        44.46902        -0.07585
C         63.65407        43.85975         0.51660
C         64.75716        45.73738        -0.86680
C         63.42929        46.36189        -1.04277
C         64.67771        48.52398        -1.69619
C         63.40542        47.79387        -1.48416
C         64.56891        49.88745        -2.17091
C         63.38447        50.70142        -1.95156
C         64.61739        52.92716        -2.12847
C         63.40763        52.15489        -1.96985
C         64.72816        54.28480        -1.55814
C         63.44423        55.04069        -1.33722
C         64.73961        57.19679        -1.38858
C         63.45322        56.51520        -1.37500
C         64.76031        58.59630        -1.31086
C         63.48724        59.39825        -1.53953
C         64.80589        61.56270        -1.05316
C         63.50578        60.83994        -1.04664
C         64.93954        63.02287        -0.55437
C         63.60918        63.60491        -0.08163
C         64.86844        65.15891         1.44791
C         63.62985        64.69777         0.91470
C         64.87732        66.27703         2.32494
C         63.64164        66.87803         2.66831
C         67.72362        33.33626         1.41930
C         66.49441        34.07437         1.33317
C         67.56698        36.07419         2.37414
C         66.38415        35.37954         1.72801
C         67.61549        37.58709         2.04417
C         66.30162        38.30036         1.84271
C         67.43298        40.30785         0.92791
C         66.26762        39.64983         1.21802
C         67.40577        41.58185         0.11445
C         66.09406        42.29982         0.23081
C         67.32237        44.38945        -0.57354
C         66.03057        43.59719        -0.51608
C         67.21062        45.72174        -1.22347
C         66.01281        46.58456        -0.85525
C         67.14636        48.55185        -2.00027
C         65.91059        47.89179        -1.61635
C         67.07051        49.91242        -2.51721
C         65.75075        50.39333        -2.75088
C         67.07786        52.99549        -2.59916
C         65.76516        52.46803        -2.77483
C         67.13665        54.40151        -2.22923
C         65.96744        55.05794        -1.79614
C         67.19502        57.18160        -1.71083
C         65.96313        56.46759        -1.57949
C         67.20186        58.58806        -1.52513
C         65.99933        59.26282        -1.29899
C         67.24651        61.12583        -0.27241
C         66.05072        60.73507        -1.11738
C         67.28850        62.54687         0.21479
C         66.10948        63.27692         0.38079
C         67.32258        64.90451         1.76818
C         66.11053        64.46234         1.16988
C         67.34153        66.08091         2.59694
C         66.12916        66.76961         2.86788
C         67.36782        68.38480         4.20980
C         66.17695        67.92809         3.67938
C         70.21391        31.81870         2.06542
C         70.16876        33.20731         1.83603
C         68.89372        33.92130         1.82783
C         70.15598        36.12578         1.71621
C         68.90799        35.37175         2.12901
C         70.02960        37.55048         1.30283
C         68.83151        38.21468         1.45754
C         69.97358        40.39301         0.71557
C         68.74675        39.67620         1.17828
C         69.90503        41.79850         0.23037
C         68.60376        42.52706         0.44388
C         69.78096        44.52155        -0.67895
C         68.54012        43.82568        -0.33747
C         69.75202        45.82496        -1.23980
C         68.45925        46.44568        -1.58224
C         69.59790        48.50315        -2.39260
C         68.36871        47.88644        -1.90332
C         69.52343        50.03864        -2.77051
C         68.22579        50.73679        -2.70897
C         69.51775        52.88951        -2.79620
C         68.24529        52.18715        -2.74926
C         69.47445        54.38651        -3.11464
C         68.35805        55.11950        -2.38101
C         69.64808        57.23867        -2.11010
C         68.39741        56.48756        -2.08819
C         69.70169        58.56938        -1.79362
C         68.44760        59.41164        -1.77208
C         69.72233        61.18865        -0.49426
C         68.53863        60.60832        -0.84275
C         69.75325        62.34073         0.40991
C         68.52454        63.01579         0.73837
C         69.78276        64.67832         2.05656
C         68.54354        64.20825         1.51198
C         69.80127        65.84600         2.88203
C         68.57368        66.54936         3.15256
C         69.83907        68.19183         4.53712
C         68.58982        67.71242         3.96957
C         69.88441        69.34655         5.35552
C         72.61598        31.82811         1.79594
C         71.42587        31.13464         2.05001
C         72.58849        33.19790         1.55256
C         71.37289        33.91285         1.56723
C         72.35627        35.99708         0.62823
C         71.33022        35.34123         1.25958
C         72.28509        37.39857         0.35366
C         71.18938        38.16264         0.67080
C         72.38787        40.39571         0.21698
C         71.11691        39.57941         0.14151
C         72.33653        41.73250         0.04335
C         71.06815        42.46239        -0.07100
C         72.20982        44.61018        -0.70820
C         71.03269        43.87662        -0.46561
C         72.16985        45.92754        -1.15066
C         70.94492        46.56211        -1.45139
C         72.02718        48.68965        -2.18332
C         70.89239        47.91887        -1.99956
C         71.97216        50.07040        -2.49184
C         70.78568        50.77589        -2.65452
C         71.99211        52.95083        -2.84511
C         70.73610        52.22002        -2.74909
C         72.04777        54.29035        -2.96199
C         70.82370        55.11099        -2.99931
C         72.16501        57.14580        -2.04203
C         70.89537        56.53247        -2.50575
C         72.21653        58.44513        -1.70436
C         70.99627        59.28434        -1.69920
C         72.24104        61.19449        -0.43604
C         71.00547        60.65863        -1.03262
C         72.20820        62.18841         0.48043
C         70.97173        62.82666         0.89980
C         72.19599        64.46025         2.34407
C         70.99152        63.97871         1.76987
C         72.20960        65.58048         3.14914
C         71.02553        66.30606         3.43424
C         72.25518        67.97615         4.83597
C         71.04942        67.49220         4.27248
C         72.27216        69.10936         5.63359
C         71.07785        69.79955         5.89536
O         69.66530        40.37686         2.15406
O         69.54704        48.97525        -3.76783
O         62.46816        47.97114        -2.60442
O         42.23756        53.62082         1.29957
O         65.61842        51.42020        -3.69243
O         62.79958        63.86164        -1.28559
O         66.99405        38.34198         3.13936
O         61.46916        43.60243         2.42712
O         64.18479        54.46378        -0.20204
O         58.06878        50.79907         1.17192
O         70.92024        56.22136        -3.96062
O         47.80801        52.91843         1.66820
O         56.28504        57.06598        -2.89628
O         69.86907        35.81539         3.13503
O         44.80373        53.67646        -1.56834
O         49.34954        48.52209         2.46969
O         51.45690        48.32164        -0.63725
O         60.09237        56.90413        -0.12983
O         46.50880        46.08420         2.15317
O         46.39006        51.26801        -1.16771
O         60.36040        49.60269         1.00438
O         50.74439        46.25592         2.42053
O         64.66184        44.62323         1.34792
O         64.05194        45.53406        -2.11774
O         60.01640        41.03664         2.96047
O         67.63811        45.69401        -2.61352
O         71.05661        60.51772        -2.50217
O         55.10473        54.21971         0.84216
O         51.99302        50.72312         1.91408
O         65.60662        61.44012        -2.29916
O         58.67349        56.51510        -3.48377
H         57.76083        56.51343        -3.86828
O         56.40277        47.01274         1.82201
H         56.56426        46.18412         2.32124
O         68.53399        42.88600         1.84469
H         68.87620        42.11190         2.35847
O         58.22656        42.89199         2.91864
H         58.67717        42.26145         3.53058
O         68.32916        59.94671        -3.12780
H         69.18433        60.39784        -3.32529
O         59.67351        54.02392        -3.24459
H         59.51432        54.88707        -3.69910
O         62.45041        58.69059         0.49738
H         61.74449        58.11998         0.87707
O         55.89380        47.78516        -1.72989
H         55.73748        48.64698        -2.17065
O         38.37510        50.60052         1.99189
H         37.53427        51.07916         2.15404
O         65.76676        43.21620        -1.91310
H         65.79127        44.02703        -2.47075
O         56.37785        42.07489        -0.93072
H         56.25990        41.11281        -1.08659
O         55.64105        54.50207        -2.73093
H         55.84247        55.20015        -3.39571
O         44.80007        50.29574         2.01008
H         44.00178        49.82227         2.32654
O         65.31920        63.83220        -1.69604
H         64.51472        63.92893        -2.25511
O         63.34148        59.45727        -2.97821
H         64.05524        60.04084        -3.32078
O         59.86969        58.93900        -3.21784
H         59.39610        58.19119        -3.65625
O         67.57925        41.17946        -1.28456
H         66.99325        41.75757        -1.83393
O         50.96123        59.98881        -2.28444
H         51.73056        60.57336        -2.45837
O         41.13950        52.06930        -1.82608
H         40.42538        51.47028        -2.12877
O         57.31306        45.57354        -1.47587
H         56.90973        46.35110        -1.93206
O         58.37910        61.48232        -2.52917
H         57.62869        61.02526        -2.96460
O         43.80636        48.21629        -1.69727
H         44.69323        47.95485        -2.02270
O         57.61403        53.55192         1.07982
H         57.68996        52.71443         1.59747
O         70.79724        39.42490        -1.27946
H         70.63671        40.31980        -1.64954
O         51.97446        57.32680        -2.64682
H         51.40804        58.11475        -2.83386
O         67.31836        35.94214         3.79065
H         68.12006        36.27421         4.25195
O         60.15210        46.53432         1.97658
H         60.13137        47.51692         1.97903
O         66.21568        46.98059         0.53538
H         65.92883        46.24941         1.12877
O         69.08913        54.44304        -4.51717
H         69.45249        55.28824        -4.87141
O         67.01154        60.34149         0.96112
H         67.73173        60.55626         1.59182
H         37.55254        48.91785        -0.34178
H         35.42900        50.14107        -0.68286
H         37.26966        53.89523         0.36044
H         35.23950        52.55755        -0.02835
H         39.16145        48.03201         0.86986
H         38.89175        54.83611        -0.44667
H         41.29450        46.82594         0.53567
H         40.95908        56.10266        -0.52277
H         44.89640        44.72154         0.39679
H         42.93930        45.88251        -0.42944
H         44.78801        58.36962        -0.07395
H         42.68776        57.13359         0.13470
H         46.64471        43.77135         0.50550
H         46.42771        59.32585        -0.49118
H         48.78248        42.64198         0.46275
H         48.55229        60.52718        -0.75547
H         52.48199        40.53919         1.09238
H         50.38179        41.72860         1.09050
H         52.37063        62.31385         0.81293
H         50.22284        61.30119         0.30715
H         54.14422        39.58371         1.12357
H         54.01618        63.25124         0.82412
H         56.27007        38.44507         1.19960
H         56.14487        64.37007         1.06871
H         60.08013        36.37445         1.45446
H         57.96075        37.53427         1.23363
H         59.88538        66.27730         1.75012
H         57.76655        65.24223         1.23551
H         61.74562        35.43057         1.60284
H         61.51185        66.84041         2.55107
H         63.89390        34.27421         1.65869
H         63.61622        67.74319         3.34313
H         67.71467        32.28058         1.11376
H         65.62127        33.54756         0.92218
H         67.34704        69.29076         4.82907
H         65.26042        68.49185         3.89588
H         69.28332        31.27542         2.28213
H         68.96512        69.90489         5.57589
H         73.57434        31.29072         1.79155
H         71.44960        30.05356         2.24451
H         73.53224        33.72840         1.36433
H         73.24843        35.44939         0.29475
H         73.12937        37.85847        -0.17856
H         73.35918        39.89211         0.33007
H         73.27412        42.30593         0.03499
H         73.19180        44.14912        -0.53836
H         73.11983        46.45597        -1.30532
H         73.01976        48.26641        -1.97757
H         72.93171        50.60278        -2.48735
H         72.93433        52.38960        -2.85017
H         73.01720        54.79431        -3.07493
H         73.08767        56.54857        -2.05576
H         73.17889        58.90253        -1.43445
H         73.20792        60.80459        -0.78248
H         73.16158        62.56170         0.87692
H         73.14496        63.94042         2.15977
H         73.17026        65.90607         3.56864
H         73.20278        67.45518         4.64590
H         73.21931        69.46730         6.06015
H         71.08917        70.69825         6.52733
