         420
 CSIRO Nanostructure Databank - Neutral Graphene Oxide Data Set
C         27.87156        27.30976        -0.21869
C         27.86897        28.75229        -0.55850
C         26.62232        29.53058        -0.42057
C         27.86013        31.65769        -0.16192
C         26.63894        30.87929        -0.29206
C         27.84478        33.04680         0.01283
C         26.65572        33.82780        -0.10834
C         27.90668        35.93960         0.06272
C         26.67567        35.19741        -0.05309
C         27.91554        37.37667         0.03457
C         26.74243        38.12981        -0.34609
C         27.81329        40.28936         0.16413
C         26.71950        39.48810        -0.39264
C         27.91296        41.75290        -0.09959
C         26.79086        42.46862        -0.55212
C         28.00254        44.55433        -0.37776
C         26.82197        43.85620        -0.66917
C         28.03992        46.01570        -0.35907
C         30.29440        27.34848         0.30113
C         28.99077        26.66375         0.15771
C         30.38837        28.77171        -0.04255
C         29.15973        29.50584        -0.43841
C         30.33755        31.64383        -0.09353
C         29.12848        30.96696        -0.19377
C         30.38400        33.05820         0.12729
C         29.09349        33.75339         0.49364
C         30.35231        35.93820         0.27828
C         29.11793        35.23923         0.21156
C         30.36375        37.36634         0.33964
C         29.12250        38.06320         0.27004
C         30.37645        40.24385         0.51646
C         29.10132        39.51658         0.48169
C         30.30756        41.73179         0.82133
C         29.12448        42.43941         0.16195
C         30.42842        44.64308         0.07122
C         29.15925        43.83353        -0.00580
C         30.23222        45.97495         0.83240
C         29.05478        46.69713         0.20666
C         32.74795        24.39694        -0.24580
C         31.64884        25.08096         0.11771
C         32.83622        27.30350        -0.13520
C         31.64040        26.55098         0.24346
C         32.84947        28.69742        -0.06476
C         31.59453        29.42942        -0.04538
C         32.81429        31.59510         0.16310
C         31.61350        30.89866        -0.42461
C         32.85095        33.06485         0.14980
C         31.59132        33.76736         0.18488
C         32.79818        35.91943         0.48497
C         31.59807        35.22097         0.32720
C         32.82910        37.35861         0.56039
C         31.59490        38.08386         0.49456
C         32.82002        40.27593         0.79039
C         31.55770        39.53203         0.56251
C         32.83708        41.74464         0.55150
C         31.61731        42.45024         0.57217
C         32.87122        44.53749         0.50199
C         31.64465        43.85136         0.47919
C         32.88080        46.00622         0.66655
C         31.56548        46.76466         0.81070
C         32.81203        48.81877         0.25886
C         31.62456        48.18362         0.42929
C         35.35679        22.98691        -0.04676
C         35.29507        24.32106        -0.66857
C         33.98915        25.07127        -0.70317
C         35.33715        27.29627        -0.62189
C         34.02852        26.58688        -0.63764
C         35.31224        28.74827        -0.47001
C         34.10204        29.40666        -0.20541
C         35.35546        31.61403         0.02724
C         34.11912        30.83410         0.15678
C         35.33048        33.01932         0.14445
C         34.07063        33.71651         0.28669
C         35.37241        35.90173         0.58173
C         34.06218        35.15923         0.60532
C         35.33413        37.37926         0.49531
C         34.08597        38.04134         0.59632
C         35.34816        40.23340         0.42950
C         34.11365        39.50814         0.73835
C         35.28540        41.65772        -0.04653
C         34.05456        42.42040         0.35671
C         35.33626        44.56400         0.20404
C         34.09444        43.83752         0.36751
C         35.33694        45.99589         0.16154
C         34.11372        46.73306         0.32333
C         35.32243        48.86361         0.12608
C         34.08907        48.13443         0.27003
C         35.36100        50.28365         0.16757
C         37.81611        23.10420         0.17791
C         36.54155        22.41138         0.25909
C         37.83574        24.49604        -0.15734
C         36.59303        25.11868        -0.67016
C         37.81340        27.29787        -0.85039
C         36.52148        26.59789        -0.68350
C         37.79441        28.83092        -0.81408
C         36.53071        29.50087        -0.49287
C         37.78962        31.62665        -0.35869
C         36.55632        30.89639        -0.24837
C         37.74468        33.04499        -0.34762
C         36.56054        33.75976        -0.04375
C         37.75500        35.93724        -0.01798
C         36.58874        35.19387         0.12207
C         37.80202        37.37005         0.25508
C         36.55052        38.08579         0.42352
C         37.78078        40.26563         0.23279
C         36.55752        39.53766         0.36203
C         37.78323        41.68371         0.11651
C         36.57352        42.41511         0.11316
C         37.80323        44.54988        -0.01928
C         36.57159        43.84100         0.09287
C         37.80522        45.99253        -0.10967
C         36.55236        46.70994        -0.01168
C         37.76217        48.87003        -0.18171
C         36.55113        48.14789        -0.03121
C         37.78459        50.28182        -0.10510
C         36.54956        50.97211         0.07584
C         40.25046        20.36087         0.89485
C         39.06064        21.02027         0.72436
C         40.25335        23.22965         0.81172
C         39.00728        22.43242         0.51220
C         40.28474        24.60250         0.19862
C         39.04751        25.24441        -0.12924
C         40.28050        27.36442        -0.47365
C         39.07281        26.62801        -0.50078
C         40.28177        28.80396        -0.55337
C         39.06516        29.52736        -0.56885
C         40.28196        31.66473        -0.52682
C         39.03704        30.93651        -0.47195
C         40.25945        33.04530        -0.68306
C         38.97336        33.75952        -0.71643
C         40.27250        35.90803        -0.24192
C         38.96118        35.28187        -0.54222
C         40.28885        37.36051         0.14341
C         39.00226        38.06934         0.22727
C         40.22281        40.20064        -0.28245
C         39.08058        39.55152         0.50292
C         40.26396        41.69435        -0.04606
C         39.04054        42.40101         0.02517
C         40.28237        44.51100        -0.19895
C         39.04485        43.82589        -0.05762
C         40.27140        45.95815        -0.61875
C         38.99745        46.68374        -0.30871
C         40.28145        48.84655        -0.11735
C         39.01975        48.15804        -0.59582
C         40.27253        50.24957         0.02537
C         39.03850        50.98731        -0.11124
C         40.25373        53.10015         0.06857
C         39.11092        52.41687        -0.20921
C         42.73123        20.33593         0.76340
C         41.51121        21.05763         0.77626
C         42.75592        23.14079         0.42766
C         41.52745        22.45317         0.61382
C         42.76320        24.56346         0.20798
C         41.50653        25.27014         0.04639
C         42.75724        27.37193        -0.34539
C         41.53050        26.67525        -0.27321
C         42.77023        28.80991        -0.48886
C         41.52617        29.52391        -0.50649
C         42.77509        31.65017        -0.58401
C         41.53416        30.93886        -0.54892
C         42.79698        33.06824        -0.69222
C         41.52070        33.76926        -0.90057
C         42.79223        35.96015        -0.43762
C         41.52439        35.28384        -0.74766
C         42.78016        37.36813        -0.21412
C         41.55337        38.09204        -0.07516
C         42.77433        40.19113        -0.10415
C         41.54491        39.48449        -0.10285
C         42.74208        41.64433         0.15018
C         41.47793        42.38810        -0.02616
C         42.77820        44.50983        -0.20107
C         41.50316        43.81011        -0.11227
C         42.75699        45.98009        -0.30131
C         41.48938        46.70633        -0.16395
C         42.72217        48.82513         0.28900
C         41.50036        48.11329         0.00852
C         42.69850        50.22277         0.41520
C         41.48827        50.93835         0.30009
C         42.75513        53.09228         0.31701
C         41.45162        52.40779         0.64983
C         43.93153        20.99824         0.60789
C         45.22818        23.11273         0.29192
C         43.97537        22.40586         0.43537
C         45.22961        24.52375         0.13041
C         43.98641        25.24491         0.06156
C         45.23468        27.34038        -0.30258
C         44.00868        26.66388        -0.19532
C         45.26521        28.76246        -0.80191
C         43.98964        29.51806        -0.54274
C         45.25452        31.66439        -0.54029
C         44.01364        30.93601        -0.56068
C         45.25595        33.07932        -0.52421
C         44.00690        33.79072        -0.60987
C         45.23324        35.95564        -0.44390
C         43.99722        35.23645        -0.51596
C         45.22381        37.36367        -0.43566
C         44.01243        38.08603        -0.29230
C         45.26034        40.25471        -0.25285
C         44.00223        39.51730        -0.19927
C         45.28526        41.66250        -0.15503
C         44.04159        42.40057         0.13106
C         45.26437        44.55400        -0.11446
C         43.99398        43.85567        -0.10532
C         45.29643        45.95209         0.02010
C         44.03826        46.71890        -0.06879
C         45.28260        48.80461         0.43383
C         43.98492        48.05577         0.63036
C         45.28005        50.23851         0.71851
C         43.94913        50.97872         0.72901
C         43.91795        52.43471         0.42663
C         47.66319        23.10154         0.21593
C         46.46840        22.42496         0.32077
C         47.69877        24.51352         0.07750
C         46.46998        25.22716         0.02591
C         47.70945        27.36333        -0.16438
C         46.47586        26.65099        -0.15008
C         47.71629        28.80812        -0.23344
C         46.51180        29.52230        -0.42764
C         47.73431        31.64837        -0.32620
C         46.50185        30.93367        -0.43517
C         47.74066        33.09586        -0.30342
C         46.49695        33.81514        -0.39631
C         47.68695        35.98838        -0.13973
C         46.48287        35.23400        -0.36858
C         47.72046        37.37855        -0.24664
C         46.49528        38.09192        -0.76907
C         47.70229        40.25232        -0.47877
C         46.47824        39.56048        -0.44239
C         47.72529        41.68150        -0.42719
C         46.49948        42.38713        -0.28107
C         47.71799        44.54197        -0.22785
C         46.49187        43.82716        -0.18364
C         47.73459        45.97564        -0.11419
C         46.51465        46.67311         0.05285
C         47.72836        48.84452         0.13662
C         46.48695        48.12526         0.19698
C         47.69790        50.27117         0.29265
C         46.54913        50.95026         0.57001
C         50.19058        24.54504         0.06077
C         48.94683        25.23060         0.01605
C         50.19140        27.36311         0.00765
C         48.94637        26.65282        -0.05416
C         50.19901        28.79550         0.03298
C         48.94520        29.52414        -0.11153
C         50.26857        31.65053        -0.31294
C         48.94424        30.92999        -0.19648
C         50.20240        33.12696         0.01662
C         48.95885        33.78958        -0.08645
C         50.20419        35.98976         0.39303
C         48.91248        35.23751         0.20908
C         50.20273        37.51574         0.39274
C         48.93560        38.13781        -0.16948
C         50.21533        40.20934        -0.80406
C         48.93873        39.50187        -0.43601
C         50.21785        41.70276        -0.60485
C         48.96362        42.41473        -0.51875
C         50.15571        44.58932        -0.70509
C         48.93242        43.82081        -0.44283
C         50.19898        46.03235        -0.40774
C         48.97460        46.71295        -0.17826
C         50.21328        48.81482        -0.12531
C         48.96475        48.13753        -0.04882
C         51.38344        25.22707         0.09861
C         52.66212        27.36320         0.22733
C         51.41901        26.64966         0.10819
C         52.64407        28.78528         0.29690
C         51.40656        29.48179         0.21710
C         52.68147        31.67861         0.32441
C         51.35987        30.96491         0.49983
C         52.67754        33.08024         0.24424
C         51.42475        33.81372         0.20727
C         52.68164        35.92858         0.07823
C         51.47483        35.25196         0.21329
C         52.71335        37.36126        -0.39642
C         51.45955        38.15214        -0.14770
C         52.72106        40.24743        -0.33621
C         51.47843        39.50039        -0.36721
C         52.68217        41.63399        -0.42956
C         51.44261        42.36002        -0.61001
C         52.70628        44.60414        -0.57585
C         51.47200        43.82835        -0.78563
C         52.70221        45.98681        -0.50257
C         51.43532        46.72061        -0.42845
C         51.40136        48.13337        -0.29098
C         55.09359        27.37417         0.43473
C         53.91415        26.68281         0.31187
C         55.10411        28.79996         0.46400
C         53.88117        29.51108         0.40475
C         55.14585        31.64075         0.38832
C         53.89981        30.94937         0.38453
C         55.15397        33.08072         0.30730
C         53.92278        33.79423         0.23609
C         55.15791        35.93336         0.14920
C         53.92908        35.21941         0.13543
C         55.16691        37.39847         0.16107
C         53.97027        38.11840        -0.03674
C         55.17625        40.23807         0.19769
C         53.96473        39.53518        -0.04394
C         55.17423        41.72281         0.25794
C         53.89840        42.42039        -0.11419
C         55.27047        44.58269        -0.45312
C         53.96612        43.84213        -0.57965
C         55.16661        46.03558        -0.25453
C         53.97178        46.67622        -0.31601
C         56.33440        29.51526         0.52454
C         56.35250        30.88929         0.47716
C         56.36400        33.81802         0.27169
C         56.36277        35.19971         0.20022
C         56.35760        38.12094         0.39091
C         56.35844        39.50951         0.40401
C         56.44350        42.50346         0.21283
C         56.47126        43.82915        -0.01180
O         43.42086        42.00382         1.41260
O         41.48770        34.68784        -2.06604
O         28.65442        29.09451        -1.77011
O         33.33345        31.05243         1.40615
O         31.02933        26.98927         1.50511
O         49.44860        35.50605         1.56711
O         50.76306        44.25520        -2.00518
O         32.35834        46.44313         1.99616
O         33.49213        39.93917         2.04404
O         44.53737        50.60475         2.02064
O         43.52246        46.62821        -1.43123
O         54.78970        44.09083        -1.76687
O         40.40925        36.27368         1.16098
O         28.15917        39.94158         1.54973
O         38.81738        34.69322        -1.85493
O         34.81515        35.42086         1.85569
O         36.07863        24.45510        -1.88779
O         54.27296        42.26574         1.30585
O         37.83133        28.08769        -2.08261
O         33.78040        25.86278        -1.90858
O         40.17718        23.47605         2.28212
H         40.21350        22.59696         2.71733
O         50.99082        31.10666         1.90355
H         51.68854        30.68235         2.44506
O         40.36554        45.91060        -2.12657
H         39.67614        45.28282        -2.43462
O         30.72296        45.06712        -1.30206
H         30.78815        44.26487        -1.86147
O         39.86973        40.02574        -1.69014
H         40.58692        40.40862        -2.23752
O         50.66895        31.55140        -1.71251
H         49.94259        31.91107        -2.26320
O         39.40572        39.71945         1.91220
H         38.71508        39.26991         2.44279
O         29.01436        33.64880         1.97134
H         29.81966        34.07451         2.33731
O         52.75387        37.21372        -1.87339
H         52.62399        38.10693        -2.26107
O         45.33769        28.63991        -2.28040
H         44.53050        28.16357        -2.57142
O         50.28304        40.05027        -2.28252
H         49.53952        40.56356        -2.66682
O         43.90457        47.75971         2.06507
H         44.03140        48.62088         2.52953
O         41.31393        52.49385         2.11313
H         42.09420        52.04484         2.50462
O         35.11853        41.48215        -1.53058
H         35.97197        41.13625        -1.87329
O         30.06913        41.82445         2.25710
H         29.27698        41.26408         2.44437
O         50.21137        37.92638         1.79838
H         49.71857        37.22805         2.29267
O         46.60164        38.04187        -2.24718
H         46.58234        37.09572        -2.50692
O         29.89163        45.72076         2.20062
H         30.73674        45.68424         2.70752
O         31.78549        30.96858        -1.87252
H         31.00802        30.53831        -2.28952
O         39.08362        48.30015        -2.07072
H         39.72279        47.60882        -2.38686
H         26.91155        26.77214        -0.25101
H         25.66568        28.98689        -0.41939
H         25.67731        31.40365        -0.20369
H         25.69398        33.32697        -0.28709
H         25.72581        35.74094        -0.14071
H         25.87189        37.58273        -0.73324
H         25.86317        39.99388        -0.85979
H         25.85157        41.94055        -0.76419
H         25.91648        44.40422        -0.96540
H         27.16193        46.55354        -0.74894
H         28.93856        25.60233         0.43981
H         28.97838        47.78983         0.30552
H         32.71048        23.29822        -0.26275
H         30.74970        24.53544         0.43754
H         32.79522        49.88934         0.01244
H         30.69186        48.74429         0.27846
H         34.42578        22.43730         0.14997
H         34.43336        50.85324         0.31067
H         36.52544        21.39834         0.68269
H         36.54246        52.06745         0.15724
H         40.26370        19.27009         1.03010
H         38.13658        20.42675         0.69300
H         40.28268        54.19549        -0.03100
H         38.22236        52.97253        -0.54333
H         42.71175        19.24353         0.88489
H         42.74342        54.16960         0.09106
H         44.85986        20.41269         0.61567
H         44.86895        52.96589         0.27418
H         48.59535        22.52362         0.25124
H         46.49338        21.33368         0.43433
H         48.63220        50.84311         0.21647
H         46.58342        52.03473         0.73976
H         50.21604        23.44802         0.07476
H         50.25146        49.90898        -0.04567
H         52.31603        24.65021         0.14230
H         52.33148        48.71474        -0.33378
H         56.04952        26.83385         0.49077
H         53.94779        25.58630         0.27302
H         56.08007        46.59809        -0.00954
H         53.96122        47.76324        -0.15913
H         57.27606        28.95106         0.58662
H         57.32061        31.40621         0.50668
H         57.33006        33.29766         0.30173
H         57.32871        35.72114         0.17807
H         57.30296        37.59520         0.57704
H         57.30331        40.03436         0.59818
H         57.38005        41.98775         0.47087
H         57.42314        44.37851         0.05478
