         324
 CSIRO Nanostructure Databank - Neutral Graphene Oxide Data Set
C          1.45013         2.41533        -2.13548
C          1.35568         3.72461        -1.57474
C          2.63291         1.71710        -2.14190
C          2.41210         4.30747        -0.90332
C          1.19454         6.41665        -0.52166
C          1.14593         7.78236        -0.28993
C          2.40332         5.69562        -0.45443
C          2.31297         8.49263         0.03564
C          1.10020        10.74915        -0.26626
C          1.15606        12.10272        -0.39522
C          2.25244         9.97349         0.20863
C          2.39986        12.84046        -0.36072
C          1.28289        15.05321        -0.83077
C          1.33943        16.44605        -0.98971
C          2.43715        14.27715        -0.65062
C          2.55837        17.14016        -1.05930
C          2.54715        18.58901        -0.92718
C          3.80465         2.26438        -1.53064
C          3.64945         3.52014        -0.75131
C          5.02807         1.61460        -1.58578
C          4.88000         4.20860        -0.23792
C          3.59050         6.37691        -0.02565
C          3.52192         7.78052         0.20800
C          4.85540         5.66216         0.12242
C          4.74223         8.51275         0.63844
C          3.58419        10.74325         0.25708
C          3.58630        12.13527        -0.20553
C          4.84634         9.96643         0.27537
C          4.87982        12.77611        -0.51567
C          3.70365        14.94639        -0.69373
C          3.75391        16.34477        -0.99434
C          4.92589        14.24627        -0.51665
C          5.03182        16.89924        -1.19063
C          3.60349        19.43611        -0.70968
C          4.98028        19.03167        -0.90121
C          6.22965         2.19470        -1.07605
C          6.21241         3.67109        -0.74519
C          7.43096         1.50559        -1.08325
C          7.28711         4.06523         0.23164
C          6.01668         6.25455         0.61014
C          6.00435         7.73207         0.89647
C          7.26190         5.47227         0.71679
C          7.28048         8.49407         0.72524
C          6.04160        10.57759         0.04044
C          6.16023        12.00819        -0.36433
C          7.30693         9.82662         0.10887
C          7.39643        12.76632         0.00025
C          6.16867        14.91229        -0.41196
C          6.21089        16.32306        -0.68044
C          7.38059        14.22195        -0.06379
C          7.38476        17.10999        -0.44046
C          6.13124        19.34786        -0.23116
C          7.35859        18.55525        -0.32817
C          8.65597         2.06301        -0.58468
C          8.55575         3.26758         0.28218
C          9.88599         1.46871        -0.78770
C          9.82925         3.92434         0.72856
C          8.39087         5.87657         1.38895
C          8.43586         8.01804         1.26678
C          9.77609         5.34659         1.26202
C          9.76151         8.54669         1.06199
C          8.59794        10.62935         0.32439
C          8.52809        12.10194         0.41611
C          9.77269         9.91270         0.83039
C          9.60446        12.90153         1.14277
C          8.57220        14.96385         0.12304
C          8.57968        16.40477        -0.08079
C          9.77714        14.28614         0.54116
C          9.76091        17.13133         0.16720
C          8.56392        19.23320        -0.11324
C          9.79490        18.55107         0.03929
C         11.11755         2.08849        -0.37663
C         11.08890         3.41217         0.18617
C         12.35024         1.43966        -0.51919
C         12.24751         4.17044         0.36787
C         10.97793         6.24401         1.09003
C         10.98597         7.72297         1.15171
C         12.16798         5.57660         0.73531
C         12.20119         8.43101         1.08419
C         10.97825        10.66820         1.20453
C         10.92505        12.15184         1.36985
C         12.25996         9.94239         0.87966
C         12.23396        12.91768         1.40157
C         10.98991        14.96313         0.65263
C         10.96452        16.43483         0.61551
C         12.25901        14.32719         0.92949
C         12.28659        17.19475         0.59411
C         11.03787        19.25106         0.00683
C         12.26700        18.59192         0.11541
C         13.55489         2.07589        -0.14415
C         13.52386         3.48924         0.20900
C         14.79738         1.40581        -0.25442
C         14.71917         4.14749         0.43464
C         13.40099         6.35319         0.51816
C         13.46192         7.76673         0.91573
C         14.74356         5.60634         0.38578
C         14.69316         8.43179         0.95389
C         13.47559        10.61884         1.49452
C         13.51622        12.13105         1.48344
C         14.75432         9.86580         1.33799
C         14.77392        12.79224         1.07712
C         13.47893        14.99386         0.79683
C         13.52513        16.40548         0.49109
C         14.79913        14.31115         1.15880
C         14.69387        17.06949         0.13038
C         13.50171        19.21295        -0.16796
C         14.71349        18.49241        -0.13880
C         16.01782         2.01313         0.08431
C         15.97525         3.37478         0.75150
C         17.25278         1.35289        -0.06054
C         17.21009         4.19029         0.50319
C         15.98534         6.32979         0.66654
C         15.95144         7.73422         0.83228
C         17.20436         5.56488         0.59084
C         17.16729         8.47900         0.96769
C         15.99621        10.62700         1.09439
C         15.93495        12.05589         0.92216
C         17.20012         9.89878         0.99061
C         17.16876        12.74757         0.47816
C         16.00824        14.91139         0.45309
C         15.93379        16.30036        -0.05359
C         17.17454        14.22335         0.35197
C         17.22277        17.05156        -0.31516
C         15.94935        19.17723        -0.32346
C         17.19218        18.53003        -0.29282
C         18.49709         2.00909         0.07545
C         18.49799         3.52076         0.10450
C         19.72661         1.35210        -0.09830
C         19.67420         4.12214         0.84830
C         18.49942         6.29909         0.54889
C         18.45361         7.78023         0.82123
C         19.71807         5.56240         0.91775
C         19.68164         8.48594         1.29566
C         18.48911        10.59138         0.90721
C         18.47704        12.01957         0.52312
C         19.68168         9.94039         1.05424
C         19.70743        12.83257         0.67767
C         18.47229        14.84881        -0.16537
C         18.48946        16.36196        -0.01421
C         19.69467        14.16480         0.42558
C         19.63517        17.09211         0.13275
C         18.42109        19.21761        -0.26690
C         19.65159        18.53620        -0.09901
C         20.97977         2.02315        -0.01766
C         21.00904         3.35208         0.61688
C         22.21099         1.42277        -0.35906
C         22.20271         4.20712         0.42422
C         20.94234         6.25550         1.29315
C         20.97625         7.75703         1.36741
C         22.27542         5.54523         1.06325
C         22.18021         8.46397         0.74706
C         20.96989        10.65562         1.23335
C         20.95978        12.16106         1.12261
C         22.24721         9.94325         1.03549
C         22.23741        12.82925         0.80742
C         20.92563        14.94815         0.72267
C         20.89085        16.43657         0.58158
C         22.22606        14.22704         0.63344
C         22.18376        17.17542         0.41074
C         20.88108        19.20885        -0.23209
C         22.13990        18.55752        -0.12251
C         23.45869         2.07558        -0.22852
C         23.49479         3.53146         0.00575
C         24.70111         1.43120        -0.41364
C         24.75680         4.20565         0.35713
C         23.51588         6.33465         0.84814
C         23.49754         7.73702         0.89422
C         24.73882         5.62227         0.66947
C         24.70687         8.48109         0.81918
C         23.43960        10.63894         0.86443
C         23.44214        12.09218         0.72803
C         24.70131         9.92772         0.76154
C         24.63025        12.76680         0.33106
C         23.41992        14.89706         0.31207
C         23.45850        16.37805         0.25228
C         24.60260        14.15894         0.08344
C         24.63585        17.04833        -0.32451
C         23.34015        19.17713        -0.45457
C         24.59004        18.46853        -0.52574
C         25.91872         2.11384        -0.24854
C         25.93478         3.47442         0.22726
C         27.16043         1.49403        -0.64515
C         27.22624         4.12178         0.53139
C         25.94877         6.36225         0.73362
C         25.93571         7.76721         0.81306
C         27.22589         5.61129         0.76153
C         27.19569         8.53564         0.93314
C         25.91476        10.64536         0.60008
C         25.89751        12.05489         0.29270
C         27.18226         9.98296         0.68239
C         27.08741        12.73232         0.00876
C         25.68081        14.79962        -0.76483
C         25.79585        16.30419        -0.57893
C         27.05370        14.02354        -0.79343
C         26.99805        16.98417        -0.88195
C         25.76575        19.12559        -0.91531
C         26.98444        18.41381        -1.04117
C         28.38453         2.11151        -0.54919
C         28.51070         3.42359         0.13184
C         29.53681         1.59740        -1.27098
C         29.79465         4.19125        -0.03980
C         28.43765         6.36741         0.30775
C         28.51403         7.80217         0.69462
C         29.68766         5.68768        -0.13860
C         29.70451         8.57237         0.32767
C         28.39928        10.68507         0.54411
C         28.36403        12.10255         0.21421
C         29.65222         9.96412         0.46554
C         29.55169        12.84347         0.00818
C         28.28469        14.88097        -0.62748
C         28.24891        16.26948        -0.90536
C         29.53075        14.21954        -0.44246
C         29.46128        16.99195        -1.10997
C         28.18909        19.08734        -1.33833
C         29.42031        18.40102        -1.38005
C         30.69721         2.27670        -1.42107
C         31.04473         3.51458        -0.62486
C         31.95722         4.48953        -1.32385
C         30.91711         6.49507        -0.33255
C         30.90329         7.87754        -0.09597
C         31.98027         5.81696        -1.04100
C         32.11454         8.66492        -0.20873
C         30.92334        10.70254         0.49297
C         30.86085        12.24771         0.31222
C         32.14654         9.97529         0.13530
C         32.06748        12.96265        -0.10550
C         30.74424        14.92280        -0.69921
C         30.71592        16.31418        -1.06963
C         31.99759        14.22840        -0.59003
C         31.89237        17.05040        -1.35217
C         30.62898        19.09372        -1.65543
C         31.84108        18.41485        -1.65012
O          2.78949        10.48458         1.46442
O         20.75660        15.81405         1.90626
O         25.05826        14.65413        -2.04057
O         14.07726        10.05414         2.67298
O         20.33608         8.20025         2.59225
O          8.20764        10.07273        -1.00620
O         20.92507        11.52558         2.43646
O         16.47109        16.44350        -1.43209
O         27.33098         4.69474         1.88066
O          5.16748         8.18203         2.01140
O          9.96578         4.20149         2.16230
O         31.01333        11.61528         1.62881
O         23.08719        17.01704         1.53923
O         11.55401        17.00660         1.84194
O         22.64655         4.26913        -0.95950
O          7.52136         3.11145         1.30868
O         28.04349         8.07887         2.04446
O         17.75638        12.16976        -0.75169
O          5.13406        18.07617        -1.93277
O         21.71654         5.62895         2.39132
O          4.12853         3.35255         0.65159
O          5.60083        12.22334        -1.70567
O         28.65163         6.12687        -1.12638
O         14.01316         6.12225        -0.79187
O         20.34208         3.38230         1.90051
O         18.64788         7.25992        -0.55537
O         12.92774        12.75347         2.68916
O         29.48005         3.55886         1.23525
O          8.32826         6.99561         2.20988
O         10.84311        11.26010         2.53751
O         15.00006        14.61124         2.57644
H         14.27921        14.14184         3.06459
O         18.75819         3.92683        -1.28256
H         17.96749         3.71291        -1.82121
O         15.93750         3.11123         2.20046
H         15.16261         2.53665         2.37790
O          9.05582        13.17057         2.46756
H          9.42251        12.48772         3.07646
O          6.51055         4.38616        -1.98234
H          5.95618         4.00884        -2.69739
O         31.84418         3.01860         0.48999
H         31.20384         2.79668         1.20830
O         27.23129        13.55574        -2.16517
H         26.37047        13.82667        -2.61775
O         12.46039        10.13656        -0.55837
H         11.81904         9.57590        -1.04504
O         21.86525         8.36492        -0.69168
H         22.60070         8.77217        -1.19738
O         18.54383        14.63489        -1.60206
H         17.74577        15.06885        -1.98954
H          0.56150         1.99003        -2.62208
H          0.41297         4.26784        -1.72295
H          2.70035         0.73747        -2.63639
H          0.26008         5.89932        -0.77303
H          0.17986         8.29824        -0.35971
H          0.15870        10.23262        -0.49927
H          0.24040        12.63578        -0.68623
H          0.29155        14.58129        -0.79218
H          0.39720        17.01247        -1.02900
H          1.53951        19.02150        -0.80949
H          5.08106         0.61303        -2.03990
H          3.39361        20.46381        -0.37489
H          7.45700         0.48484        -1.49585
H          6.14288        20.19753         0.46794
H          9.94273         0.51775        -1.33849
H          8.55917        20.33221        -0.06923
H         12.37897         0.40407        -0.88861
H         11.02632        20.32541        -0.23092
H         14.80817         0.38868        -0.67615
H         13.51788        20.27927        -0.43861
H         17.24865         0.27977        -0.31266
H         15.92475        20.27478        -0.40168
H         19.72240         0.27787        -0.34183
H         18.42531        20.31415        -0.35946
H         22.20387         0.37477        -0.69596
H         20.86792        20.27441        -0.50879
H         24.71825         0.37050        -0.70524
H         23.32874        20.23200        -0.76925
H         27.09788         0.52153        -1.15792
H         25.75579        20.21084        -1.09236
H         29.39815         0.64263        -1.80240
H         28.17215        20.17432        -1.50875
H         31.50488         1.83191        -2.02220
H         32.76196         4.05874        -1.93841
H         32.78727         6.42878        -1.47119
H         33.05135         8.16087        -0.48262
H         33.10661        10.50838         0.14991
H         33.04700        12.49246         0.05274
H         32.92981        14.74168        -0.85876
H         32.87397        16.55924        -1.33926
H         30.59476        20.17129        -1.87019
H         32.77288        18.95515        -1.86707
