         349
 CSIRO Nanostructure Databank - Neutral Graphene Oxide Data Set
C          2.19610         2.56436         3.71371
C          2.00621         3.83313         3.08638
C          3.39200         1.90205         3.67637
C          3.03296         4.49169         2.43402
C          1.80549         6.67901         2.26553
C          1.77363         8.03626         1.94859
C          2.97555         5.91076         2.08808
C          2.92472         8.70534         1.50783
C          1.70557        10.96116         1.43974
C          1.75150        12.26155         1.75627
C          2.91427        10.15673         1.04342
C          3.02681        13.01311         1.92402
C          1.87489        15.22158         1.94946
C          1.81199        16.58613         1.68191
C          3.03492        14.48169         1.68535
C          2.91185        17.23146         1.09314
C          2.85339        18.66198         0.79813
C          4.45582         2.34545         2.78188
C          4.26567         3.74112         2.13472
C          5.83125         1.83619         2.95880
C          5.47495         4.47000         1.72056
C          4.13601         6.55710         1.58080
C          4.12401         7.96920         1.34813
C          5.35938         5.79984         1.38905
C          5.35929         8.68359         1.06076
C          4.22506        10.84779         1.34116
C          4.30860        12.26759         1.72285
C          5.40533        10.12694         1.14653
C          5.57789        13.04517         1.44397
C          4.18444        15.12431         1.13298
C          4.08522        16.50022         0.81602
C          5.44948        14.42930         0.94293
C          5.17510        17.18791         0.03511
C          3.96076        19.35159         0.47608
C          5.31101        18.67250         0.43798
C          6.94182         2.41119         2.39919
C          6.86621         3.86355         1.90290
C          8.25099         1.83914         2.70274
C          7.85860         4.35962         0.87054
C          6.48572         6.49488         0.71191
C          6.53389         7.96468         0.79037
C          7.76403         5.77576         0.48503
C          7.78310         8.60950         0.71024
C          6.68820        10.77778         1.18940
C          6.86827        12.26747         1.20795
C          7.79741         9.94872         1.14094
C          7.97495        12.97308         0.45852
C          6.59367        15.08300         0.43120
C          6.51417        16.48334         0.07135
C          7.81776        14.33451         0.18290
C          7.60790        17.21512        -0.39346
C          6.27037        19.40840        -0.50058
C          7.52294        18.60119        -0.75922
C          9.33680         1.99346         1.83735
C          8.98644         3.70542         0.47872
C         10.72343         1.97182         2.04525
C         10.22615         4.34663         0.07518
C          9.00984         6.48857         0.12835
C          8.95070         7.97362         0.01589
C         10.13152         5.77967        -0.20969
C         10.18818         8.71086        -0.47254
C          9.54814        11.00854         0.34297
C          9.19427        12.32033        -0.01782
C         10.41803        10.18324        -0.37709
C         10.11466        12.93192        -0.93466
C          9.00587        15.06291        -0.33986
C          8.92172        16.56448        -0.54533
C         10.05512        14.34393        -1.08209
C          9.95272        17.22544        -1.36875
C          8.61352        19.25478        -1.31717
C          9.82114        18.58809        -1.64596
C         11.68835         2.57305         1.15493
C         11.45807         3.70569         0.24114
C         13.01297         2.19021         1.41478
C         12.64218         4.18895        -0.61693
C         11.25901         6.45035        -0.89155
C         11.36341         7.92206        -0.93272
C         12.51407         5.63876        -1.11495
C         12.45255         8.52966        -1.51747
C         11.33941        10.80743        -1.25686
C         11.21222        12.17998        -1.48049
C         12.60529        10.05014        -1.61245
C         12.05864        12.86327        -2.52996
C         11.13474        15.05120        -1.68681
C         11.11518        16.49096        -1.75099
C         12.25208        14.33633        -2.20208
C         12.26485        17.19920        -2.19665
C         10.93877        19.36723        -2.29922
C         12.26114        18.63740        -2.27144
C         14.16727         2.80532         0.84293
C         14.01767         3.89938        -0.05192
C         15.45872         2.32791         1.13924
C         15.16059         4.54404        -0.55105
C         13.71275         6.40614        -1.47793
C         13.63099         7.74210        -1.84667
C         14.98220         5.65821        -1.51484
C         14.76595         8.42171        -2.48054
C         13.27143        10.50070        -2.93300
C         13.33884        12.08741        -3.00135
C         14.60135         9.72270        -3.05840
C         14.60633        12.94443        -3.23659
C         13.44793        15.03977        -2.50155
C         13.46734        16.49119        -2.43235
C         14.61427        14.36473        -2.87856
C         14.68949        17.19894        -2.52663
C         13.45261        19.32202        -2.34437
C         14.70755        18.62355        -2.35110
C         16.60374         2.92042         0.57079
C         16.46379         4.10909        -0.20468
C         17.87540         2.26793         0.68186
C         17.68821         4.76368        -0.73738
C         16.16604         6.35932        -2.06145
C         16.01382         7.74908        -2.55179
C         17.55198         6.05699        -1.53971
C         17.17128         8.34902        -3.10240
C         15.69310        10.15655        -3.81022
C         15.92270        12.35712        -3.55305
C         16.94210         9.53203        -3.79409
C         17.15782        12.83938        -3.00872
C         15.93513        15.05492        -3.06066
C         15.92085        16.47915        -2.56079
C         17.03342        14.16718        -2.49200
C         17.08636        17.12212        -2.18582
C         15.92779        19.27997        -2.12367
C         17.11510        18.53554        -1.92897
C         18.98846         2.66700        -0.04598
C         18.96931         3.96950        -0.77466
C         20.21154         1.96292         0.05061
C         19.95182         4.10635        -1.94833
C         18.59689         6.29785        -2.63074
C         18.52753         7.72546        -3.12651
C         19.89674         5.54265        -2.66204
C         19.82257         8.56271        -3.13113
C         18.74276        10.82270        -3.41420
C         18.42577        12.09270        -2.87786
C         19.82243        10.02947        -2.97398
C         19.44745        12.59041        -1.90441
C         18.11071        14.80603        -1.72932
C         18.20595        16.29939        -1.67406
C         19.31742        14.00070        -1.37784
C         19.56161        16.95120        -1.55539
C         18.29490        19.12543        -1.39404
C         19.44224        18.38271        -1.07193
C         21.37502         2.38092        -0.61615
C         21.31443         3.50032        -1.56819
C         22.58343         1.67207        -0.45422
C         22.40302         3.66437        -2.35606
C         21.09526         6.43257        -2.85065
C         21.05818         7.82467        -2.76966
C         22.38674         5.79431        -2.89274
C         22.26221         8.54807        -2.41673
C         21.08874        10.75799        -2.61103
C         20.79643        11.98901        -1.79845
C         22.22926         9.90586        -2.10302
C         21.78469        12.54363        -1.00068
C         20.52482        14.69646        -0.90087
C         20.55166        16.10328        -0.78615
C         21.64335        13.91544        -0.50842
C         21.58958        16.72554        -0.07053
C         20.52272        18.95464        -0.38849
C         21.60399        18.18050         0.10544
C         23.76914         1.96335        -1.18216
C         23.73984         3.02057        -2.25718
C         24.96370         1.30172        -1.03286
C         24.92528         3.99744        -2.07149
C         23.54557         6.29916        -2.37036
C         23.53639         7.79379        -2.26173
C         24.83005         5.51534        -2.21875
C         24.72346         8.53496        -1.73844
C         23.29729        10.59636        -1.40374
C         23.06381        11.84224        -0.84195
C         24.72311        10.04591        -1.44684
C         24.07468        12.39678         0.09908
C         22.67753        14.55567         0.21717
C         22.60696        15.92758         0.50308
C         23.83766        13.76305         0.68918
C         23.50531        16.53759         1.54902
C         22.67238        18.78739         0.77414
C         23.70387        18.03391         1.39537
C         26.19032         1.84316        -1.73219
C         26.11015         3.37866        -1.79135
C         27.37977         1.31808        -0.99530
C         27.39038         4.17381        -1.58660
C         25.98610         6.27448        -1.60566
C         25.78146         7.69182        -1.11476
C         27.00467         5.45028        -0.79174
C         26.94825         8.39188        -0.49543
C         25.67906        10.51044        -0.34301
C         25.43430        11.78357         0.21396
C         26.90809         9.84317        -0.09667
C         26.42556        12.40876         1.00343
C         24.96606        14.50050         1.28574
C         24.80932        15.80293         1.71282
C         26.34776        13.89815         1.30318
C         25.82637        16.45774         2.46904
C         24.78395        18.63993         2.00915
C         25.80829        17.86363         2.66685
C         28.50503         2.07290        -0.66794
C         28.54345         3.45521        -0.91980
C         29.68760         1.38622        -0.15124
C         29.79672         4.26026        -0.65054
C         28.25300         6.25430        -0.47471
C         28.18937         7.60282        -0.58938
C         29.41370         5.51096         0.18305
C         29.64668         8.59880         0.66403
C         27.88675        10.43008         0.77609
C         27.62936        11.73035         1.29473
C         29.08601         9.72263         1.28830
C         28.61222        12.37217         2.21760
C         27.13085        14.32862         2.51890
C         26.73957        15.57880         3.26618
C         28.25484        13.63775         2.90340
C         27.92523        16.30163         3.83529
C         26.81428        18.47218         3.43755
C         27.89011        17.71009         3.99377
C         30.83202         2.05464         0.13906
C         30.89112         3.49240         0.06154
C         31.91323         4.20480         0.62743
C         30.64301         6.30908         0.64967
C         30.44988         7.63091         1.28979
C         31.81105         5.62611         0.84222
C         30.93121         7.94844         2.57156
C         29.73152        10.08639         2.50520
C         29.62592        11.49320         2.94003
C         30.63494         9.20003         3.11805
C         30.15072        11.94898         4.22952
C         29.10726        14.13855         3.95489
C         29.02692        15.54833         4.29351
C         29.98614        13.25012         4.63076
C         30.07585        16.21568         4.97061
C         28.96146        18.34717         4.67152
C         30.02708        17.59793         5.16423
O         17.95086        10.24923        -4.43074
O          9.02828        10.47596         1.51709
O         11.50868         5.77322        -2.17962
O         15.50824         5.35186        -2.87463
O         15.77646        11.37797        -4.52202
O          8.98480         2.31615         0.51504
O         29.35359         8.36449        -0.68290
O         30.00180        12.36396         1.78650
O          9.51987        16.01000         0.67953
O         18.89104         5.40664        -3.72920
O         18.92395        12.86021        -0.54686
O          6.58652        12.89119         2.50107
O         17.71893        15.57328        -0.50034
O         25.93133         6.07274        -3.02800
O         25.88496         7.70566         0.34017
O         22.34220         4.51608        -3.46496
O          3.78834        12.55179         3.09240
O         23.47479        12.55058         1.45238
O          6.74464         5.95080        -0.63204
O         19.24132         7.97530        -4.35565
O         24.61144         8.32299        -3.17652
O          4.05377         2.50090         1.38264
O          9.03079         8.45072        -1.38167
O         13.64397        12.56878        -4.32321
O         18.80907         5.02138         0.22317
O         19.40295         3.16665        -2.89789
H         19.81016         3.33104        -3.77418
O          2.83727        10.08643        -0.43070
H          3.50516         9.43297        -0.73180
O          4.73463        17.17501        -1.36734
H          4.52703        16.24777        -1.60891
O         17.78877         7.15458        -0.60653
H         18.39221         6.81235         0.09587
O         12.54174         3.34916        -1.80390
H         11.88223         3.77625        -2.39791
O         16.19844        15.18519        -4.50775
H         16.01655        14.31580        -4.92673
O         26.33057         5.00483         0.40035
H         26.07679         5.81198         0.90552
O         11.19143        12.86945        -3.71072
H         11.75795        13.12510        -4.47428
O         13.57065        10.44437        -0.58992
H         13.20041        10.22763         0.29157
O         27.03999        14.52594         0.15953
H         27.96131        14.18629         0.14796
O         28.85156         4.98707         1.41814
H         28.59704         5.74234         1.98785
O          7.35526         4.58622         3.11621
H          6.81361         4.29034         3.87946
O         25.92556        15.13909         4.42988
H         25.01405        14.96667         4.10590
O         27.89603         4.58193        -2.89135
H         27.84967         3.80179        -3.48403
O         30.37062         4.70903        -1.90191
H         29.62315         4.94539        -2.50658
O         26.32175         1.34999        -3.09746
H         25.44772         1.50075        -3.54070
O          5.88848        18.74193         1.75888
H          5.28783        18.28242         2.38233
O         12.41770        10.11623        -4.01018
H         12.74526        10.54296        -4.83021
O         22.79775        16.35921         2.82385
H         21.92400        16.79707         2.74011
O         25.30612        10.68575        -2.61940
H         25.02803        10.15197        -3.40206
O         20.07308        17.01691        -2.92412
H         20.89763        17.54707        -2.91343
O         10.58675        19.64971        -3.67195
H         10.51705        18.79761        -4.14946
O          5.62296        19.72956        -1.73738
H          5.21610        18.89963        -2.07692
O         23.90964         2.36870        -3.55666
H         23.67034         3.03744        -4.23691
O         21.61652        11.27910        -3.90056
H         21.67845        10.51938        -4.51964
H          1.38393         2.17877         4.34656
H          1.05081         4.34522         3.26618
H          3.57734         1.04191         4.33628
H          0.88756         6.20539         2.63879
H          0.83088         8.58547         2.07695
H          0.72331        10.47932         1.32326
H          0.80869        12.79740         1.94362
H          1.00296        14.72607         2.39677
H          0.90280        17.15676         1.91629
H          1.87805        19.16394         0.88509
H          5.94378         0.88802         3.50889
H          3.91771        20.43612         0.29860
H          8.37455         1.29842         3.65439
H          6.56281        20.37963        -0.02419
H         11.11959         1.50181         2.95875
H          8.52660        20.32626        -1.54924
H         13.18370         1.38422         2.14460
H         11.03944        20.36214        -1.79454
H         15.57137         1.43075         1.76549
H         13.45523        20.42240        -2.33958
H         17.93453         1.34706         1.28141
H         15.93863        20.36913        -1.96826
H         20.25496         1.06371         0.68286
H         18.26932        20.19307        -1.12538
H         22.60859         0.84247         0.26790
H         20.49680        20.02934        -0.15088
H         25.07120         0.49513        -0.29249
H         22.71948        19.88636         0.81779
H         27.41604         0.22838        -0.84278
H         24.86735        19.73747         2.01102
H         29.62956         0.29516        -0.02862
H         26.80600        19.56330         3.57619
H         31.70685         1.51494         0.53233
H         32.77652         3.67775         1.06138
H         32.67011         6.14320         1.29558
H         31.57362         7.24403         3.11762
H         31.11456         9.48740         4.06315
H         30.72454        11.25255         4.85545
H         30.48409        13.59259         5.54934
H         30.94881        15.65039         5.32581
H         28.94518        19.43878         4.80228
H         30.85040        18.10095         5.69050
