         324
 CSIRO Nanostructure Databank - Neutral Graphene Oxide Data Set
C          2.81416         3.43641         5.49662
C          2.54217         4.55888         4.70603
C          4.11274         2.96581         5.63130
C          3.57903         5.25370         4.05290
C          2.03611         6.94617         3.06306
C          1.76485         8.10249         2.27549
C          3.32088         6.45525         3.24776
C          2.77700         8.83652         1.71511
C          1.46039        10.99859         1.28753
C          1.38073        12.24917         0.77644
C          2.51422        10.04497         0.87902
C          2.33195        12.81858        -0.16644
C          1.09477        14.97116        -0.18612
C          1.05649        16.32071        -0.29439
C          2.24023        14.15059        -0.55278
C          2.22056        17.10880        -0.74982
C          2.37842        18.51476        -0.29419
C          5.18279         3.62550         4.97566
C          4.90831         4.79839         4.21515
C          6.49100         3.04954         4.98875
C          6.02148         5.53254         3.59410
C          4.42799         7.13034         2.60845
C          4.16379         8.39862         1.91550
C          5.72494         6.61135         2.62790
C          5.27193         8.92829         0.99308
C          3.56988        10.55896        -0.05087
C          3.44613        11.94982        -0.63453
C          4.91142         9.86517        -0.11471
C          4.66943        12.59258        -1.29010
C          3.36011        14.83230        -1.26302
C          3.44300        16.33707        -1.15620
C          4.63819        14.08230        -1.53197
C          4.76429        16.96250        -0.98855
C          3.58599        19.08351        -0.19228
C          4.86536        18.29487        -0.28291
C          7.53800         3.55497         4.21658
C          7.38861         4.87042         3.55436
C          8.76409         2.87785         4.07410
C          8.33271         5.25238         2.48870
C          6.77442         7.10376         1.77335
C          6.53189         8.17620         0.90126
C          8.04916         6.39724         1.66611
C          7.59223         8.74141         0.10233
C          6.10266        10.52484        -0.80405
C          5.98303        11.92666        -1.22678
C          7.43450         9.97673        -0.51084
C          7.15792        12.64208        -1.54587
C          5.93280        14.81649        -1.51664
C          5.95329        16.25885        -1.24549
C          7.09511        14.10066        -1.66852
C          7.19006        16.96927        -1.20181
C          6.05169        19.08447        -0.73829
C          7.22061        18.40512        -1.06538
C          9.76940         3.35546         3.20471
C          9.52512         4.51221         2.35843
C         10.99889         2.68403         3.10045
C         10.50925         4.87828         1.38968
C          8.98733         6.80046         0.69991
C          8.85928         8.02866        -0.02260
C         10.14421         5.92639         0.41333
C          9.87711         8.52486        -0.86475
C          8.67421        10.75830        -0.80676
C          8.41023        11.99241        -1.61436
C          9.83286         9.89933        -1.29286
C          9.56679        12.64937        -2.25011
C          8.40417        14.78768        -1.58568
C          8.45932        16.25618        -1.34589
C          9.56672        14.14500        -2.26693
C          9.71806        16.98444        -1.61514
C          8.47515        19.08750        -1.20876
C          9.68738        18.42221        -1.43599
C         11.99603         3.10162         2.19260
C         11.73271         4.20187         1.28696
C         13.23666         2.44766         2.14747
C         12.74314         4.57422         0.32247
C         11.11275         6.30778        -0.66289
C         10.88880         7.58014        -1.51392
C         12.44676         5.60522        -0.69805
C         12.19704         8.29191        -1.96346
C         10.91759        10.52212        -1.87594
C         10.88808        11.93704        -2.32624
C         12.16097         9.78998        -2.18949
C         12.15996        12.72760        -2.38143
C         10.86701        14.88395        -2.33464
C         10.89188        16.31101        -1.90778
C         12.13516        14.10808        -2.40703
C         12.15618        17.01160        -1.93498
C         10.91760        19.11986        -1.47183
C         12.13541        18.44613        -1.65944
C         14.26581         2.89463         1.29167
C         14.01776         3.99569         0.38027
C         15.52064         2.27216         1.32177
C         15.12453         4.51191        -0.40623
C         13.62726         6.23819        -1.42304
C         13.53732         7.66412        -1.82316
C         14.95446         5.63890        -1.19299
C         14.67443         8.39393        -2.11149
C         13.41892        10.56801        -2.24414
C         13.42501        11.98666        -2.38007
C         14.62356         9.83860        -2.32187
C         14.67386        12.67304        -2.43402
C         13.37600        14.90679        -2.58865
C         13.34219        16.35557        -2.24529
C         14.71155        14.15678        -2.61095
C         14.59887        17.13039        -2.27819
C         13.34767        19.14748        -1.53278
C         14.58588        18.50019        -1.70615
C         16.60419         2.73777         0.53495
C         16.44317         3.89679        -0.30827
C         17.83852         2.08425         0.58246
C         17.54938         4.38520        -1.01927
C         16.06693         6.20831        -1.96530
C         15.96650         7.66320        -2.32442
C         17.41662         5.54906        -1.92132
C         17.21816         8.41247        -2.61061
C         15.83910        10.53308        -2.55502
C         15.89455        11.95589        -2.46762
C         16.96902         9.70665        -2.96624
C         17.15541        12.69051        -1.98931
C         15.97597        14.89156        -2.30243
C         15.96143        16.38542        -2.29921
C         17.13984        14.20985        -2.05410
C         17.09337        17.08950        -1.69122
C         15.76398        19.12657        -1.30883
C         17.00217        18.41919        -1.22393
C         18.94586         2.52823        -0.18320
C         18.82225         3.73826        -0.97696
C         20.15823         1.84460        -0.06309
C         19.97679         4.35540        -1.53021
C         18.66000         6.28594        -2.39630
C         18.58193         7.72032        -2.98982
C         19.98065         5.70167        -2.02474
C         19.86804         8.50857        -2.60791
C         18.77068        10.88528        -2.86444
C         18.51083        12.11869        -2.33962
C         19.81203         9.97581        -2.33429
C         19.70894        12.88390        -1.96274
C         18.37702        14.91260        -1.70572
C         18.43071        16.42473        -1.71892
C         19.58437        14.28347        -1.55866
C         19.43951        16.98766        -0.74947
C         18.08516        19.01043        -0.51400
C         19.26980        18.29665        -0.19976
C         21.29261         2.18113        -0.87941
C         21.22651         3.58650        -1.56128
C         22.62079         1.54981        -0.54160
C         22.48661         4.31208        -1.72743
C         21.18227         6.39246        -2.31483
C         21.09691         7.87217        -2.45677
C         22.43144         5.65249        -2.18295
C         22.31357         8.70549        -2.21264
C         20.96153        10.67467        -1.66679
C         20.99727        12.16595        -1.75433
C         22.26756        10.00478        -1.67900
C         22.13410        12.87540        -1.13932
C         20.87933        15.07049        -1.41172
C         20.65614        16.31735        -0.58938
C         22.07902        14.25662        -0.93218
C         21.72114        16.92198         0.10070
C         20.28926        18.83628         0.62199
C         21.51450        18.15523         0.79924
C         23.82286         2.30234        -1.05789
C         23.73842         3.67144        -1.48675
C         25.04391         1.66043        -1.00514
C         24.96514         4.41280        -1.59326
C         23.69888         6.18362        -2.58810
C         23.61127         8.28664        -2.59626
C         24.93003         5.75628        -2.10587
C         24.80983         8.84329        -2.13050
C         23.44839        10.76880        -1.43404
C         23.35811        12.16647        -1.05181
C         24.72879        10.14594        -1.55422
C         24.53357        12.91907        -0.80636
C         23.21934        14.92026        -0.39873
C         23.05854        16.31163         0.05375
C         24.47597        14.26892        -0.28899
C         24.10130        16.82174         1.06589
C         22.48201        18.58356         1.75993
C         23.65158        17.85205         2.02349
C         26.27013         2.36476        -1.21904
C         26.20210         3.77394        -1.39305
C         27.51764         1.69752        -1.25157
C         27.44049         4.58782        -1.19101
C         26.17058         6.57561        -2.26585
C         26.11450         8.15191        -2.33191
C         27.43510         5.98235        -1.77680
C         27.37652         8.92622        -1.99800
C         25.91458        10.94035        -1.40284
C         25.75064        12.30621        -1.20150
C         27.26827        10.35228        -1.50116
C         27.34394        13.18320        -0.10946
C         25.54515        14.83571         0.54744
C         25.21967        15.92611         1.40054
C         26.82738        14.19851         0.78873
C         25.93858        16.17292         2.60068
C         24.38979        18.02272         3.20711
C         25.49494        17.19195         3.51999
C         28.72896         2.41604        -1.44199
C         28.70640         3.83010        -1.47527
C         29.99527         1.74978        -1.55306
C         29.90891         4.56552        -1.50033
C         28.60574         6.69292        -1.63472
C         28.66653         8.17955        -1.71836
C         29.85536         5.99146        -1.38003
C         29.71051         8.79658        -0.83624
C         28.37810        10.92207        -0.55238
C         28.14455        12.13229         0.28394
C         29.46996         9.99862        -0.12973
C         29.02861        12.41836         1.42997
C         27.57129        14.46367         1.95377
C         27.08100        15.38373         2.93369
C         28.81470        13.69785         2.20812
C         27.71139        15.54851         4.20143
C         26.13680        17.30815         4.77378
C         27.20775        16.48067         5.12790
C         31.16980         2.46200        -1.59987
C         31.16557         3.88896        -1.52295
C         32.35129         4.65645        -1.39314
C         31.03530         6.69441        -1.09091
C         30.88511         8.05276        -0.56262
C         32.28137         6.01404        -1.12682
C         31.81473         8.53817         0.37293
C         30.28654        10.31666         0.99006
C         29.71131        11.23186         2.06207
C         31.48201         9.61612         1.18870
C         30.62342        11.62641         3.19669
C         29.51420        13.83979         3.53270
C         28.93231        14.77556         4.55593
C         30.46201        12.75876         3.90063
C         29.21993        14.63058         6.00568
C         27.84758        16.65637         6.48866
C         28.69725        15.48357         6.89676
O         26.82063        13.17666        -1.40753
O         19.89225        10.16430        -0.81535
O          7.09432         5.93976         4.52364
O          2.49237         9.69714        -0.55703
O         21.19833        15.53609        -2.72888
O         12.73922         5.27274        -2.09578
O         20.71168        12.71484        -3.07261
O         12.02969         8.84919        -3.30900
O         14.06677        14.59323        -3.84639
O         23.67165         7.23337        -3.50626
O          2.57052        16.98122        -2.17250
O          3.64652        11.90786        -2.07837
O         28.33537        11.18368        -1.98816
O         21.09369         2.32517        -2.30401
O         15.38893        17.01091        -3.49125
O          5.04929         9.52104         2.31503
O         24.10534        17.24613        -0.32741
O         28.41322         8.78378        -3.01616
O         29.82511        13.60949         1.14486
O         15.72515         6.59912        -3.33115
O         26.26310         7.33166        -3.50779
O         17.95850         5.32237        -3.25950
O         17.88561        10.34942        -3.78611
O          3.71396        14.40916        -2.61740
O          9.97536        14.73157        -3.52292
O         30.09721        15.17465         3.74044
O         10.02220        12.07328        -3.51979
O          8.68990        15.25312        -0.22528
O          5.25744         9.47866        -1.45219
O         10.05634         5.33555        -0.95511
O          5.14710        17.91745         1.13966
H          6.06800        17.57648         1.16942
O         22.71278         1.47299         0.89092
H         23.60820         1.15288         1.12489
O          9.14913        11.28314         0.51269
H          8.97821        10.58990         1.18667
O         17.09077        12.42307        -0.52567
H         17.43356        11.51651        -0.36634
O         27.46948         4.82630         0.28828
H         27.55716         3.94605         0.71417
O         10.23080         7.15003        -2.72065
H         10.77825         6.44544        -3.12864
O         18.61702         7.58569        -4.41401
H         18.00817         6.84756        -4.64764
O         28.61577        10.46133         2.66628
H         29.00013         9.64391         3.04796
O         28.66518        17.84337         6.48424
H         29.37067        17.71902         5.81548
O         18.92794        16.80366        -3.04227
H         19.85378        16.37526        -3.13556
H          1.98766         2.92003         6.00403
H          1.50223         4.89923         4.61739
H          4.32058         2.06846         6.23104
H          1.17809         6.43271         3.51544
H          0.71912         8.41149         2.13828
H          0.72841        10.67314         2.04073
H          0.56897        12.89346         1.13972
H          0.19006        14.46268         0.17417
H          0.15155        16.86624         0.01248
H          1.46294        19.10402        -0.12982
H          6.64016         2.10615         5.53519
H          3.67644        20.13963         0.10399
H          8.93547         1.94499         4.63132
H          6.06585        20.17502        -0.59824
H         11.19520         1.81630         3.74722
H          8.48708        20.18091        -1.08750
H         13.42812         1.60062         2.82228
H         10.92683        20.20769        -1.31043
H         15.67803         1.41092         1.98744
H         13.33201        20.20282        -1.22372
H         17.95171         1.18760         1.20895
H         15.71236        20.14863        -0.90614
H         20.28963         1.11138         0.74519
H         17.97398        20.04518        -0.15659
H         22.63336         0.50081        -0.96159
H         20.13202        19.80720         1.11316
H         25.08659         0.59324        -0.73676
H         22.22493        19.42527         2.42058
H         27.54565         0.60167        -1.16476
H         24.07191        18.78243         3.93663
H         30.01330         0.65049        -1.57250
H         25.77929        18.06320         5.48913
H         32.13335         1.93456        -1.65230
H         33.32766         4.15254        -1.43251
H         33.20935         6.57863        -0.95934
H         32.74830         7.98958         0.55696
H         32.16205         9.89800         2.00368
H         31.37150        10.89609         3.54079
H         31.12894        12.96137         4.75222
H         29.89247        13.82303         6.33173
H         27.04762        16.82680         7.25492
H         28.94392        15.38255         7.96451
