         236
 CSIRO Nanostructure Databank - Neutral Graphene Oxide Data Set
C        -10.75239         0.94618         1.24480
C        -10.09240         1.76690         0.23816
C         -8.53810         0.43460        -0.74873
C         -7.44580         1.04950        -1.36104
C         -6.11180         0.56378        -1.19171
C         -4.87077         1.32846        -1.32317
C         -3.52318         0.61348        -1.27589
C         -2.43423         1.33319        -0.47790
C         -1.08145         0.68744        -0.59557
C          0.08472         1.39396        -0.68953
C          1.43430         0.72706        -0.78891
C          2.40072         1.36014         0.23939
C          3.68963         0.60730         0.47893
C          4.93035         1.35211         0.73332
C          6.16307         0.69230         0.65102
C          7.36934         1.42216         0.65409
C          8.67360         0.73281         0.79164
C          9.88308         1.45858         0.34693
C         11.01600         0.65439        -0.10024
C         -9.78478         3.08535         0.33359
C         -9.17566         3.92490        -0.80283
C         -7.91074         3.34753        -1.42327
C         -6.75120         4.04372        -1.52951
C         -4.77759         2.71783        -1.48662
C         -3.69058         3.48445        -0.92344
C         -2.66379         2.78778        -0.11725
C         -1.60386         3.62678         0.47882
C          0.24412         2.87282        -0.88076
C          1.24180         3.55608         0.02711
C          2.34949         2.83412         0.43307
C          3.52174         3.51610         1.03780
C          4.89489         2.78184         1.02818
C          6.15374         3.53269         0.91153
C          7.35669         2.85368         0.68525
C          8.60787         3.57982         0.45334
C          9.80926         2.81145         0.15647
C         -8.91216         5.32615        -0.27511
C         -7.70657         5.99793        -0.35662
C         -6.58038         5.37290        -1.02074
C         -5.39205         6.06083        -1.18303
C         -3.52087         4.85994        -1.10916
C         -2.52538         5.68411        -0.47594
C         -1.41627         4.97536         0.15096
C         -0.15197         5.64365         0.38450
C          1.08106         4.97599         0.35238
C          2.31553         5.72180         0.49226
C          3.54952         5.01727         0.93248
C          4.86213         5.74457         0.94210
C          6.16218         4.99620         1.07321
C          7.45191         5.75334         0.79124
C          8.62048         4.95327         0.39608
C         -7.47580         7.32409         0.17812
C         -6.25176         7.96368         0.07051
C         -5.13373         7.31741        -0.59525
C         -3.82065         7.86310        -0.53413
C         -2.62083         7.10440        -0.40173
C         -1.52999         7.85118         0.37772
C         -0.19645         7.11304         0.53910
C          1.11416         7.86548         0.41630
C          2.35014         7.08500         0.31660
C          3.61656         7.78160         0.00942
C          4.91634         7.07741         0.25297
C          6.18804         7.84910         0.26682
C          7.37483         7.19701         0.44138
C         -5.98706         9.23682         0.73726
C         -4.81580         9.88152         0.56179
C         -3.82587         9.38172        -0.47473
C         -2.46707        10.00156        -0.39555
C         -1.34921         9.28612        -0.11388
C         -0.05577         9.93283        -0.20719
C          1.13662         9.28643        -0.00452
C          2.41664         9.93781        -0.16026
C          3.61231         9.25611        -0.11648
C          4.89742         9.91288        -0.20423
C          6.08890         9.26507        -0.03237
C        -10.58202        -0.40086         1.39255
C         -9.52049        -1.24190         0.86833
C         -8.42372        -0.70862         0.05959
C         -7.16639        -1.35260         0.01406
C         -6.03960        -0.73870        -0.57724
C         -4.75859        -1.44739        -0.48949
C         -3.56468        -0.80546        -0.76133
C         -2.29405        -1.50117        -0.70904
C         -1.07746        -0.77455        -0.73652
C          0.13711        -1.49590        -0.84588
C          1.38775        -0.77683        -0.67018
C          2.56007        -1.43972        -0.45024
C          3.86855        -0.67616        -0.34264
C          5.01623        -1.52156         0.17855
C          6.16650        -0.81329         0.85667
C          7.49149        -1.47261         0.50363
C          8.73773        -0.76122         0.91198
C         10.08836        -1.49713         0.82802
C         11.06470        -0.69598        -0.01577
C         -9.46059        -2.57143         1.26749
C         -8.29908        -3.37532         1.03406
C         -7.00567        -2.63604         0.79276
C         -5.91388        -3.49583         0.22841
C         -4.75619        -2.85505        -0.19228
C         -3.46875        -3.63652        -0.15805
C         -2.26896        -2.92080        -0.70912
C         -1.08914        -3.64124        -0.98131
C          0.11778        -2.90526        -1.07073
C          1.40835        -3.60169        -1.25014
C          2.65106        -2.87010        -0.79109
C          3.77274        -3.64629        -0.13442
C          5.05075        -2.86578         0.03595
C          6.22853        -3.66735         0.54633
C          7.52585        -2.94116         0.28319
C          8.80431        -3.68311         0.43537
C          9.97706        -2.97915         0.50814
C         -8.27761        -4.74601         1.21016
C         -7.12725        -5.54039         0.86729
C         -5.99880        -4.90984         0.31045
C         -4.93425        -5.71157        -0.33579
C         -3.62557        -5.05584        -0.65862
C         -2.37814        -5.86662        -0.79326
C         -1.19639        -5.11966        -1.43275
C          0.12593        -5.90155        -1.33846
C          1.46775        -5.13285        -1.44202
C          2.60185        -5.74778        -0.62178
C          3.95679        -5.03719        -0.77622
C          5.10338        -5.79714        -0.15069
C          6.26465        -5.12243         0.13860
C          7.52222        -5.82724         0.31632
C          8.72326        -5.12749         0.42435
C         -7.12056        -6.96473         1.06903
C         -6.06465        -7.76368         0.66987
C         -4.97271        -7.19502        -0.15627
C         -3.66718        -7.94792        -0.26239
C         -2.40704        -7.20906        -0.56200
C         -1.23431        -8.11783        -0.87708
C          0.10134        -7.35516        -0.94244
C          1.21114        -7.92215        -0.04612
C          2.53879        -7.15907        -0.11383
C          3.81798        -7.89879         0.01215
C          5.03341        -7.23845        -0.04181
C          6.28977        -7.95773         0.12082
C          7.47720        -7.26994         0.25626
C         -5.95605        -9.14723         1.04512
C         -4.78472        -9.85063         0.91816
C         -3.57672        -9.28108         0.38334
C         -2.37283        -9.95596         0.43718
C         -1.15122        -9.39436        -0.05884
C          0.03708       -10.09183        -0.01020
C          1.31723        -9.42803        -0.16335
C          2.51327       -10.06805        -0.04565
C          3.75910        -9.34967         0.42294
C          5.05006       -10.07165         0.14184
C          6.22503        -9.41302         0.06899
O         -0.26682         3.45791        -1.82501
O          1.88703        -5.31829        -2.81517
H          1.14139        -5.06480        -3.39925
O         -4.38645         5.50538        -1.99708
O          0.31484        -6.99393        -2.31812
O          2.61206         0.59443         1.46517
O         -4.65123        -7.93964        -1.36106
O          4.07189         3.02964         2.26346
O          3.35053        -3.83204         1.25467
H          3.27325        -2.94355         1.66534
O          2.35239        -3.01695        -2.21369
O          5.96363        -0.97545         2.28733
H          6.76511        -0.62211         2.73810
O         -2.09073         7.95412         1.71939
H         -1.32950         8.10577         2.32675
O         10.69359        -1.48637         2.15396
H         10.28508        -0.73589         2.64776
O          4.20678        -0.24929        -1.65178
O          7.53878        -2.01143        -0.85049
O          4.35965        -4.87818        -2.13838
H          3.63990        -4.41070        -2.63131
O         -3.15404        -3.80845         1.27512
H         -3.29319        -2.94507         1.71990
O         -1.51442        -5.03933        -2.84872
H         -2.48468        -4.92258        -2.94265
O          1.96481         1.05925        -2.08846
H          2.83241         0.55044        -2.19087
O         -3.04595         0.56481        -2.64794
H         -3.71713         0.10633        -3.19500
O          2.37483        -5.98001         0.79043
H          1.02395        -6.86454         1.62534
O         -2.98792         1.68588         0.83193
O          0.68551        -7.73634         1.30591
O          6.11414        -3.73551         2.00160
H          5.21166        -4.07824         2.19839
O          8.65580         0.03266         2.13292
O        -10.17437         4.01348        -1.85398
H        -10.26104         3.11140        -2.23237
O          4.05783         5.68782         2.14968
O         -0.90963         3.04550         1.47346
H         -1.36522         2.19107         1.68256
O          3.61009        -9.34044         1.89294
H          2.78024        -8.85278         2.09325
O         -7.86543         2.13884        -2.16823
O          0.48014         7.62361         1.74004
O         -1.53506        -8.62510        -2.20303
H         -1.15733        -7.97834        -2.84686
O         -5.72264         3.40268        -2.25079
O         -4.35848         9.83390        -1.76397
H         -5.25376         9.44733        -1.87037
O         -6.52570        -2.24835         2.13475
H         -7.25021        -1.74505         2.56420
O          7.00000         5.47723         2.17348
O         -4.61701        -5.24351        -1.70767
O         -9.77641         1.07131        -0.95307
O          4.33413         7.07598        -1.09350
H         11.94479        -1.22443        -0.41247
H         11.83348         1.19447        -0.60343
H         10.68561         3.35783        -0.22431
H          9.53611         5.47888         0.08532
H          8.32173         7.75405         0.36554
H          7.02645         9.83728        -0.09464
H          4.90087        10.99675        -0.39449
H          2.42205        11.02834        -0.31252
H         -0.04828        10.98973        -0.51727
H         -2.38430        11.05584        -0.70250
H         -4.61900        10.83664         1.07049
H         -6.75563         9.63728         1.41561
H         -8.29443         7.82043         0.72045
H         -9.76376         5.82635         0.21159
H        -10.07217         3.61831         1.25272
H        -11.48718         1.44664         1.89515
H        -11.23283        -0.90192         2.12850
H        -10.32698        -3.02266         1.77649
H         -9.19640        -5.26819         1.51964
H         -7.95466        -7.41586         1.62768
H         -6.82401        -9.62297         1.52531
H         -4.73943       -10.88642         1.28703
H         -2.33304       -10.94387         0.92314
H          0.03791       -11.13117         0.35607
H          2.52858       -11.16972        -0.01787
H          5.02560       -11.17113         0.10088
H          7.16773        -9.96923        -0.04919
H          8.42070        -7.82969         0.35010
H          9.66351        -5.69517         0.50322
H         10.92527        -3.53480         0.58281
