         204
 CSIRO Nanostructure Databank - Neutral Graphene Oxide Data Set
C        -11.14879         0.72308        -0.13755
C         -9.94665         1.51968        -0.19503
C         -8.67492         0.81838        -0.47921
C         -7.40991         1.52158        -0.17905
C         -6.17841         0.77336        -0.13872
C         -4.93949         1.48934         0.03488
C         -3.68568         0.76954         0.05537
C         -2.47793         1.45850         0.30686
C         -1.24520         0.73511         0.43851
C         -0.02703         1.41524         0.70151
C          1.17440         0.70177         0.77370
C          2.44284         1.43866         0.96200
C          3.73502         0.68506         0.72904
C          4.94429         1.44056         0.34943
C          6.11528         0.75592        -0.01280
C          7.35499         1.44050        -0.02446
C          8.59268         0.68091        -0.08746
C          9.86687         1.40199         0.30033
C         11.09274         0.67799        -0.19979
C         -9.93064         2.88644        -0.02891
C         -8.69088         3.63212        -0.02835
C         -7.44628         2.89113         0.02509
C         -6.21202         3.63395         0.45758
C         -4.93971         2.88118         0.18078
C         -3.71037         3.61242         0.20460
C         -2.45788         2.89686         0.34744
C         -1.26282         3.59969         0.56291
C         -0.04425         2.87846         1.08136
C          1.24598         3.59865         0.74958
C          2.45611         2.90176         0.74260
C          3.69371         3.58363         0.56015
C          4.93218         2.85946         0.41553
C          6.15186         3.56786         0.20421
C          7.37228         2.84928         0.08271
C          8.63546         3.56805        -0.04824
C          9.82463         2.86944        -0.03949
C         -8.66794         5.02111        -0.07399
C         -7.42831         5.76285        -0.20234
C         -6.18293         5.05887        -0.02416
C         -4.94959         5.73163        -0.11357
C         -3.72035         5.00704         0.10026
C         -2.42061         5.71003        -0.14578
C         -1.21883         5.01684         0.45296
C         -0.01598         5.71203         0.58517
C          1.24020         5.01270         0.63120
C          2.46545         5.72316         0.50173
C          3.69241         5.00465         0.44525
C          4.92820         5.70626         0.23164
C          6.14225         4.99912         0.12681
C          7.38519         5.70383        -0.10521
C          8.58182         4.99898        -0.19074
C         -7.41344         7.11338        -0.51079
C         -6.14088         7.82518        -0.88761
C         -4.90251         7.12903        -0.39464
C         -3.68867         7.85717        -0.21270
C         -2.50410         7.18644         0.08060
C         -1.29491         7.94476         0.42014
C         -0.00093         7.18865         0.63973
C          1.26744         7.89705         0.42788
C          2.46992         7.16938         0.40337
C          3.72059         7.85430         0.27135
C          4.91452         7.14284         0.13614
C          6.15609         7.83744        -0.14466
C          7.33674         7.13451        -0.25936
C         -6.13017         9.30094        -0.57907
C         -4.98472         9.98053        -0.35947
C         -3.69182         9.31996        -0.25239
C         -2.50814        10.02545        -0.19249
C         -1.23970         9.37460         0.03817
C         -0.02194        10.01251        -0.01494
C          1.24703         9.32863         0.18691
C          2.44235        10.01072         0.08095
C          3.74576         9.35444         0.44800
C          4.96239         9.98222        -0.17862
C          6.09003         9.27404        -0.38703
C        -11.13619        -0.64701        -0.13111
C         -9.91959        -1.42077        -0.19609
C         -8.66723        -0.69342        -0.48991
C         -7.38566        -1.39143        -0.29137
C         -6.16888        -0.64290        -0.25594
C         -4.92155        -1.36170        -0.29447
C         -3.67512        -0.64699        -0.15059
C         -2.44793        -1.34329        -0.08606
C         -1.23993        -0.67840         0.26321
C         -0.01611        -1.41096         0.38574
C          1.19306        -0.71517         0.62693
C          2.44870        -1.43380         0.55767
C          3.65533        -0.75230         0.47043
C          4.82782        -1.45404        -0.07134
C          6.05985        -0.67523        -0.40424
C          7.35283        -1.41178        -0.74816
C          8.59641        -0.67386        -0.30921
C          9.84004        -1.42188        -0.40465
C         11.07728        -0.64990        -0.44138
C         -9.87369        -2.78312         0.00874
C         -8.63206        -3.52120        -0.03651
C         -7.39003        -2.78778        -0.17212
C         -6.14892        -3.50485        -0.21702
C         -4.94136        -2.76739        -0.38388
C         -3.71006        -3.51574        -0.64548
C         -2.38268        -2.75659        -0.45828
C         -1.18914        -3.54431        -0.11073
C         -0.00599        -2.84487         0.26287
C          1.22052        -3.55284         0.43279
C          2.44485        -2.87468         0.47299
C          3.71145        -3.58134         0.41391
C          4.88313        -2.91827         0.08991
C          6.15838        -3.60137        -0.08753
C          7.35198        -2.87647        -0.33786
C          8.59205        -3.56438        -0.41282
C          9.82028        -2.79439        -0.51621
C         -8.59136        -4.90623         0.08846
C         -7.35975        -5.63838         0.03651
C         -6.13000        -4.92067        -0.14440
C         -4.88715        -5.64710        -0.25586
C         -3.69895        -4.97020        -0.51491
C         -2.41032        -5.68755        -0.84020
C         -1.21014        -4.94516        -0.27132
C         -0.03549        -5.68620        -0.06697
C          1.17388        -5.02686         0.45104
C          2.45773        -5.80969         0.56084
C          3.74262        -5.04344         0.64118
C          5.00661        -5.78763         0.33531
C          6.21031        -5.01527        -0.02109
C          7.42877        -5.71913        -0.20719
C          8.62056        -4.97220        -0.35999
C         -7.32279        -7.03949         0.16209
C         -6.10469        -7.76567         0.09890
C         -4.88320        -7.08553        -0.13681
C         -3.64584        -7.80838        -0.20224
C         -2.41494        -7.15436        -0.45358
C         -1.19156        -7.86241        -0.41442
C          0.01856        -7.06390        -0.36880
C          1.30511        -7.64289        -0.55142
C          2.50227        -7.15954        -0.04513
C          3.73824        -7.92183        -0.11351
C          4.95717        -7.23549         0.01793
C          6.22634        -7.89609        -0.10317
C          7.41190        -7.15883        -0.18203
C         -6.07547        -9.19175         0.27943
C         -4.89300        -9.88346         0.27123
C         -3.64052        -9.21803         0.04814
C         -2.41634        -9.91289         0.09304
C         -1.17474        -9.28412        -0.12217
C          0.02478       -10.07540         0.13060
C          1.28454        -9.77476        -0.35520
C          2.60711       -10.21180        -0.00601
C          3.73969        -9.38743        -0.12665
C          5.03625       -10.02857        -0.07402
C          6.21213        -9.33815        -0.12783
O          3.88992         9.58638         1.90500
H          3.11103         9.17693         2.33968
O          4.59362        -5.48474         1.74546
O         -2.92358        -3.02421        -1.80345
O          3.25793         1.02172         2.10328
O          9.94544         1.34189         1.77496
H         10.00952         0.39491         2.02265
O         -2.26785        -5.64637        -2.30050
H         -2.38694        -4.69958        -2.56036
O         -6.29720         3.72361         1.94119
H         -6.18372         2.81475         2.29269
O         -2.18608         5.57779        -1.62040
H         -2.24188         4.62033        -1.83176
O          1.61105        -5.64157         1.74153
O          7.45380        -1.44336        -2.20618
H          6.52616        -1.47519        -2.54192
O         -8.69372         0.08067        -1.74881
O          5.07118        -0.93467        -1.47710
O         -0.79161         7.69860         1.79277
O         -6.08572         7.74346        -2.37264
H         -6.03168         6.79212        -2.60711
O          1.32714        -8.78141        -1.36060
O         -0.15548         2.90794         2.54794
H          0.64694         2.47654         2.91298
H         12.00474        -1.17793        -0.71190
H         12.03998         1.23702        -0.24308
H         10.77811         3.41169        -0.13504
H          9.52332         5.54840        -0.34277
H          8.27116         7.67049        -0.48540
H          6.99246         9.76845        -0.77862
H          4.94094        11.06483        -0.37552
H          2.43586        11.09661        -0.10026
H          0.01520        11.08718        -0.25112
H         -2.52194        11.12057        -0.30496
H         -5.01165        11.07263        -0.22124
H         -7.08764         9.84042        -0.63912
H         -8.36446         7.64618        -0.66549
H         -9.61601         5.57663        -0.13124
H        -10.87495         3.43381         0.11508
H        -12.10931         1.25182        -0.04273
H        -12.08636        -1.19294        -0.03039
H        -10.80424        -3.33651         0.20829
H         -9.53052        -5.46583         0.21499
H         -8.26240        -7.58953         0.32242
H         -7.02469        -9.72057         0.44991
H         -4.88860       -10.97072         0.43825
H         -2.43267       -10.99038         0.31776
H         -0.09280       -10.94388         0.79706
H          2.76290       -11.25148         0.32491
H          5.05736       -11.12877        -0.05701
H          7.17022        -9.87720        -0.16138
H          8.36851        -7.69501        -0.27451
H          9.58359        -5.49816        -0.43992
H         10.76893        -3.34424        -0.61410
