         287
 CSIRO Nanostructure Databank - Neutral Graphene Oxide Data Set
C        -10.92371         0.83729         0.65303
C         -9.67295         1.61880         0.28875
C         -8.41287         0.87398         0.68633
C         -7.30408         1.47324         1.17070
C         -5.95430         0.77944         1.38711
C         -4.83498         1.51371         0.64066
C         -3.64824         0.78300         0.15955
C         -2.56752         1.45373        -0.34804
C         -1.36118         0.76276        -0.89755
C         -0.04114         1.43434        -0.63521
C          1.23771         0.67186        -0.79557
C          2.50476         1.48078        -0.93982
C          3.83305         0.79827        -1.10795
C          5.14250         1.61294        -0.94145
C          6.38857         0.76524        -0.60798
C          7.56118         1.49185        -0.03989
C          8.68560         0.71919         0.56884
C         10.02885         1.45690         0.32429
C         11.20058         0.60071         0.74924
C         -9.68183         3.05135         0.77134
C         -8.58559         3.67967         1.22625
C         -7.29474         2.94959         1.52934
C         -6.15998         3.61761         0.75680
C         -4.89136         2.87633         0.54276
C         -3.61733         3.67470         0.32494
C         -2.65455         2.94274        -0.60747
C         -1.32715         3.67224        -0.59503
C         -0.03051         2.94732        -0.60360
C          1.22864         3.62044        -1.15178
C          2.40316         2.90970        -0.39929
C          3.75061         3.60729        -0.41481
C          4.90588         2.74227         0.12860
C          6.14794         3.57935         0.48527
C          7.47241         2.83921         0.66329
C          8.77957         3.70604         0.30720
C          9.92135         2.86474         0.84322
C         -8.58368         5.15195         1.59939
C         -7.32630         5.89433         1.14866
C         -6.18176         5.10369         0.61601
C         -4.93196         5.80694         0.23340
C         -3.79023         5.12947        -0.10435
C         -2.62845         5.85875        -0.58220
C         -1.40633         5.12835        -0.94449
C         -0.09137         5.90139        -1.00992
C          1.22150         5.15683        -1.02926
C          2.47215         5.88889        -0.67053
C          3.73300         5.09961        -0.38697
C          4.86545         5.81981         0.25565
C          6.14428         5.07566         0.49264
C          7.39895         5.87279         0.57589
C          8.68148         5.11747         0.94821
C         -7.27029         7.24420         1.17675
C         -5.97962         7.99393         0.92472
C         -5.05481         7.25300        -0.01958
C         -3.88257         7.99605        -0.61079
C         -2.60994         7.25259        -0.71227
C         -1.35430         7.97420        -0.60514
C         -0.13478         7.31081        -0.60123
C          1.06423         7.93288         0.07550
C          2.40861         7.30665        -0.21338
C          3.54576         7.99111         0.06277
C          4.84703         7.29574         0.26549
C          6.14534         8.02372         0.01786
C          7.36044         7.22464         0.47937
C         -6.10851         9.45261         0.56145
C         -5.11303        10.13390        -0.02440
C         -3.88087         9.52015        -0.66563
C         -2.57694        10.11149        -0.21380
C         -1.38428         9.41845        -0.30203
C         -0.14849        10.10907        -0.11469
C          1.09186         9.44326         0.01410
C          2.28414        10.11804         0.22898
C          3.49451         9.35771         0.70788
C          4.83189        10.07133         0.64947
C          6.01832         9.46286         0.47905
C        -10.93540        -0.44919         1.03145
C         -9.65731        -1.20196         1.33381
C         -8.50903        -0.61012         0.49307
C         -7.26289        -1.38099         0.79219
C         -5.98390        -0.71967         1.10899
C         -4.67057        -1.45606         0.91239
C         -3.73230        -0.70143        -0.01466
C         -2.59464        -1.45710        -0.64314
C         -1.34311        -0.72278        -1.06078
C         -0.03802        -1.49577        -1.17872
C          1.25588        -0.69556        -1.47027
C          2.55134        -1.46325        -1.07043
C          3.84748        -0.70726        -0.95471
C          5.17155        -1.43012        -1.08514
C          6.38020        -0.73291        -0.53142
C          7.46096        -1.43423        -0.04649
C          8.59309        -0.76379         0.67772
C          9.84785        -1.51435         1.14805
C         11.12691        -0.73084         0.90908
C         -9.67866        -2.70926         1.16406
C         -8.59727        -3.43507         0.68644
C         -7.46105        -2.66350         0.02535
C         -6.13927        -3.40360        -0.30909
C         -4.91233        -2.95308         0.51762
C         -3.67809        -3.68429         0.12992
C         -2.51979        -2.98083        -0.57249
C         -1.18385        -3.60103        -0.21139
C          0.03838        -2.93778        -0.77318
C          1.39239        -3.57914        -0.43724
C          2.50226        -2.96470        -1.39950
C          3.85427        -3.70865        -1.28970
C          5.15289        -2.93550        -1.16310
C          6.39959        -3.69465        -0.74613
C          7.58248        -2.90357        -0.24172
C          8.73375        -3.62161         0.38373
C          9.85197        -2.96633         0.75556
C         -8.57037        -4.85427         0.73328
C         -7.45163        -5.63359         0.34308
C         -6.36036        -4.97541        -0.49669
C         -5.02139        -5.74257        -0.43687
C         -3.74144        -5.08229        -0.34862
C         -2.51484        -5.81019        -0.30091
C         -1.20835        -5.09468        -0.15784
C          0.03323        -5.86287        -0.44824
C          1.33313        -5.12442        -0.45498
C          2.56794        -5.91763        -0.71830
C          3.84803        -5.18952        -1.05463
C          5.12944        -5.92510        -0.73941
C          6.26689        -5.10347        -0.14433
C          7.59794        -5.88834        -0.17396
C          8.69939        -5.12513         0.57334
C         -7.48959        -7.02007         0.47632
C         -6.23671        -7.85723         0.59176
C         -5.02128        -7.21584        -0.03172
C         -3.72587        -7.93950         0.25629
C         -2.49720        -7.17909        -0.08865
C         -1.20775        -7.91698         0.14383
C          0.00908        -7.22175        -0.46355
C          1.15092        -8.12211        -0.95683
C          2.55727        -7.40833        -1.14681
C          3.72625        -8.04587        -0.39566
C          5.07075        -7.40769        -0.51000
C          6.29050        -8.15134         0.05597
C          7.40773        -7.23851         0.46980
C         -6.23314        -9.31590         0.15422
C         -5.13002        -9.95064        -0.28292
C         -3.82501        -9.25453        -0.64440
C         -2.52773       -10.01027        -0.42029
C         -1.35185        -9.39824        -0.16953
C         -0.08918       -10.18484         0.07625
C          1.17580        -9.35601        -0.06300
C          2.27231        -9.73534         0.62637
C          3.55699        -9.07092         0.49440
C          4.66004        -9.54503         1.32651
C          5.91688        -9.09888         1.17013
O          5.37029        -2.11277        -2.35399
O          5.89558         4.28645         1.74366
O          5.42527        -6.84535        -1.84396
O         -8.78087        -0.92981        -0.91087
O         -5.01233         7.54249        -1.44715
O         -0.85221         5.55906        -2.21362
O          2.16920        -5.68032         0.65693
O         -0.55680         3.48710         0.64928
O          2.06546         5.74503        -2.07783
O          0.84690         7.67202         1.57150
O         -8.00444        -2.15583        -1.24247
O         -5.05786        -6.87647        -1.40555
O         -4.21444        -3.75034         1.52167
O          8.82681         3.90681        -1.09968
H          9.16033         3.07384        -1.51700
O          3.09319         1.30750        -2.25642
O          7.49630         1.30152        -1.45936
O         -3.77676        -1.07477        -1.41811
O         -6.63526         4.21348        -0.49995
O          1.28579        -0.45784        -2.87630
H          1.13232        -1.32229        -3.32302
O         -3.23982         3.08883        -1.96436
O          7.48852        -3.40816        -1.64085
O          1.68912        -3.17377         0.89964
H          2.08465        -3.93638         1.38104
O         -1.53632         0.15867        -2.21915
O          0.61990         0.76515         0.50646
O          8.46191        -5.33997         1.98393
H          9.06730        -4.76057         2.49416
O          4.63986         6.55412         1.51566
O         -3.63083        -8.40962         1.60401
H         -2.70536        -8.28627         1.92734
O         -0.19611        -2.57768        -2.15487
O          8.23534         0.13678         1.80870
O         -7.04596         3.12121         2.94193
H         -6.36231         2.44926         3.19964
O          2.01412         2.88342         0.98342
H          2.62412         2.27790         1.46599
O          3.09534        -1.13998         0.23242
O          6.25138         8.08037        -1.43967
H          7.07828         8.55379        -1.66878
O         -1.10406        -4.25351         1.07069
O          5.42773         2.24193        -2.18440
H          4.58611         2.32589        -2.69199
O         -6.77689        -1.42283         2.15254
O          9.79325        -1.63028         2.60620
H          9.35415        -0.80734         2.93221
O          8.03957        -6.06065        -1.53827
H          7.26159        -6.33675        -2.07718
O         -0.40497       -11.07459        -2.09796
H          0.14604       -10.26814        -2.31084
O          0.69155        -8.56332        -2.26069
O         -9.68332         1.68961        -1.16688
H         -8.86298         2.14254        -1.45531
O          4.14376         4.35514        -1.58710
O         -2.75194        -3.42129        -1.93946
H         -3.56746        -2.95883        -2.25588
O          7.57114         2.52230         2.06030
H          7.11718         3.24284         2.55885
O         -9.74767         5.81988         1.11692
H         -9.71291         5.82589         0.13832
O          9.82201         5.86802         0.54592
H          9.98522         5.64265        -0.39610
O          2.08115        -3.07431        -2.75912
H          2.62755        -3.76850        -3.20004
O         -9.34702        -0.95101         2.73375
H        -10.10285        -1.26211         3.27355
O          4.51749         2.06585         1.33851
H          4.75260         2.65515         2.09241
O         -3.97685         9.87960        -2.08003
H         -4.58446         9.22073        -2.48823
O         -6.03197        -7.85380         2.04047
H         -6.64963        -8.50216         2.43767
O         -6.80667        -5.14180        -1.81110
O         -5.60011         0.90090         2.79739
H         -6.10243         0.19389         3.26417
O          3.93936        -4.66652        -2.41116
O         -5.24780         7.95975         2.19945
H         -5.81770         8.36871         2.88424
O         -0.01307       -11.39719        -0.73568
H          1.39299        -8.30848        -2.91223
O         -2.19421         2.79036        -2.91620
H         -2.37773         1.85211        -3.17889
O         -3.98186        -1.42294         2.17332
H         -4.54336        -1.88194         2.83430
O          5.87541        -4.89685         1.23661
H          6.65936        -5.09116         1.81392
O         -0.93856        -7.87999         1.59892
H         -0.76925        -6.94423         1.84894
O         -5.72993        -2.96076        -1.61466
H         -6.18174        -3.61933        -2.23084
O          3.25579         9.13836         2.13746
H          2.48543         8.52333         2.21591
O          6.80464        -9.00588        -1.01688
H          7.11977        -8.41229        -1.73251
O         10.13596         1.53451        -1.13044
H          9.99046         0.64536        -1.51672
O          2.85571        -7.42324        -2.55461
H          3.81735        -7.20337        -2.66624
O          1.28598         3.29344        -2.53679
H          1.78053         4.01189        -2.99475
O         -3.91391        -8.94951        -2.02835
H         -3.04805        -8.62943        -2.35469
O          0.91089         6.22032         1.73197
H          0.25803         6.06269         2.45695
O         -3.04444         3.74444         1.66165
H         -2.12573         3.38874         1.65271
H         12.05573        -1.28842         1.11072
H         12.19159         1.08010         0.71904
H         10.13657         2.99072         1.91808
H          8.70974         5.01216         2.06638
H          8.31129         7.77347         0.58766
H          6.94299        10.06189         0.52690
H          4.81865        11.14316         0.90584
H          2.28294        11.21871         0.26424
H         -0.17004        11.20663        -0.03611
H         -2.55077        11.18887         0.01217
H         -5.23409        11.21581        -0.19432
H         -7.00134         9.99134         0.91929
H         -8.14397         7.81291         1.53502
H         -8.61850         5.20983         2.72215
H        -10.60021         3.63487         0.59394
H        -11.87986         1.36106         0.49375
H        -11.89487        -0.95456         1.22989
H        -10.52962        -3.25857         1.60155
H         -9.42457        -5.36766         1.20602
H         -8.40646        -7.47303         0.89387
H         -7.15577        -9.89582         0.32363
H         -5.18963       -11.02809        -0.50855
H         -2.52863       -11.10073        -0.58019
H         -0.11682       -10.57503         1.12943
H          2.22384       -10.61800         1.28241
H          4.42047       -10.28345         2.10599
H          6.73044        -9.48055         1.80338
H          8.33709        -7.76503         0.74510
H          9.69809        -5.56346         0.30099
H         10.71008        -3.55181         1.12625
