         732
 CSIRO Nanostructure Databank - Neutral Graphene Oxide Data Set
C         23.16071        24.39893        -0.18579
C         21.90797        25.10520        -0.09246
C         22.91767        27.13471        -1.15259
C         21.78623        26.39080        -0.48606
C         22.90087        28.60198        -0.70702
C         21.79335        29.40538        -1.22187
C         22.93030        31.51694        -0.67971
C         21.78968        30.76525        -1.11849
C         22.87027        32.95942        -0.71173
C         21.70675        33.69294        -0.80146
C         22.87212        35.85533        -0.94260
C         21.72335        35.13149        -0.80823
C         22.90408        37.33473        -1.24130
C         21.67685        38.07865        -0.77107
C         22.95778        40.13591        -0.94994
C         21.68920        39.41246        -0.68121
C         22.98233        41.64415        -1.04687
C         21.73171        42.40923        -1.02351
C         22.97161        44.48507        -0.66974
C         21.74504        43.75601        -0.84490
C         22.98155        45.90882        -0.60836
C         21.76691        46.65193        -0.55727
C         22.97702        48.70287        -0.96586
C         21.76611        48.01961        -0.71919
C         25.68102        22.94533        -0.57426
C         25.60217        24.34591        -0.52161
C         24.31096        25.01893        -0.60457
C         25.53967        27.24744        -0.65189
C         24.28339        26.45828        -0.96807
C         25.47602        28.69073        -0.36683
C         24.17474        29.36981        -0.33461
C         25.37514        31.53591        -0.21749
C         24.15499        30.84582        -0.40401
C         25.39971        33.00682        -0.27509
C         24.12210        33.74209        -0.53956
C         25.41702        35.85827        -0.86597
C         24.15822        35.10807        -1.21729
C         25.43716        37.24893        -0.69849
C         24.18159        38.01696        -0.74034
C         25.40589        40.12606        -0.18624
C         24.19182        39.37278        -0.59586
C         25.43935        41.61758        -0.35478
C         24.21996        42.37683        -0.72913
C         25.46559        44.48717        -0.18892
C         24.20665        43.74991        -0.60168
C         25.47068        45.92677        -0.66215
C         24.22965        46.61946        -0.73299
C         25.45512        48.77234        -1.31707
C         24.18956        48.03115        -0.96009
C         25.50318        50.18965        -0.80952
C         28.05344        22.97839        -0.01270
C         26.88155        22.27635        -0.34515
C         28.01645        24.40775        -0.00092
C         26.79504        25.10114        -0.29468
C         27.94712        27.27468        -0.04504
C         26.77504        26.52433        -0.28638
C         27.88654        28.69260         0.04992
C         26.64388        29.39628        -0.06318
C         27.79749        31.60606         0.18196
C         26.60888        30.85750         0.01086
C         27.85877        33.01485        -0.13798
C         26.68315        33.68414        -0.46545
C         27.95331        35.82729        -0.66240
C         26.70674        35.07764        -1.02320
C         27.93419        37.28580        -1.01969
C         26.65987        37.95628        -0.60052
C         27.94810        40.14700        -0.47833
C         26.72422        39.35200        -0.03217
C         27.94855        41.55288        -0.57186
C         26.73266        42.32105        -0.49191
C         27.93434        44.45004        -0.69222
C         26.73483        43.72805        -0.53028
C         27.95609        45.87116        -0.74290
C         26.69897        46.60804        -0.81255
C         27.93707        48.73689        -0.97934
C         26.72673        48.02006        -0.99229
C         27.94185        50.15098        -0.93150
C         26.68331        50.83983        -0.71994
C         30.52761        20.21836         0.91011
C         29.37200        20.87818         0.42884
C         30.38823        23.05212         0.79853
C         29.26888        22.28849         0.40321
C         30.40079        24.46859         0.64644
C         29.19211        25.15503         0.29656
C         30.39184        27.29226         0.44518
C         29.19372        26.58140         0.23854
C         30.42331        28.77343         0.16844
C         29.08547        29.40916         0.49150
C         30.30128        31.68526         0.59208
C         29.03460        30.94180         0.58560
C         30.30608        33.05414         0.32892
C         29.11441        33.73165        -0.07487
C         30.39375        35.88212        -0.35739
C         29.12557        35.15361        -0.33756
C         30.38060        37.28200        -0.55675
C         29.17623        38.01907        -0.61481
C         30.44168        40.14936        -0.52776
C         29.18007        39.43039        -0.55050
C         30.41521        41.59660        -0.56950
C         29.20171        42.25945        -0.69470
C         30.42991        44.45076        -0.53134
C         29.20869        43.72318        -1.03805
C         30.41694        45.86367        -0.53722
C         29.19340        46.55835        -0.77375
C         30.43738        48.75095        -0.62184
C         29.24438        48.00964        -1.17095
C         30.41376        50.19251        -0.68015
C         29.17673        50.87679        -0.93200
C         30.37437        53.00012        -1.04005
C         29.19819        52.28473        -1.11120
C         32.80053        18.75990         2.01079
C         32.73715        20.24629         2.19561
C         31.56138        20.90796         1.50006
C         32.83992        23.06572         1.39443
C         31.49598        22.41125         1.59139
C         32.89575        24.45259         0.81241
C         31.59939        25.20361         0.82728
C         32.84144        27.36653         0.87122
C         31.61288        26.61734         0.72467
C         32.82656        28.80472         0.94259
C         31.60601        29.48574         0.77356
C         32.82050        31.69181         1.18823
C         31.50502        30.93001         1.02092
C         32.82807        33.17173         0.94145
C         31.53717        33.86078         0.53842
C         32.86409        35.85861        -0.10485
C         31.61976        35.21108        -0.06180
C         32.94977        37.23800        -0.59636
C         31.63974        38.01438        -0.73815
C         32.95126        40.19399        -0.84871
C         31.64619        39.46832        -0.61195
C         32.90610        41.62539        -0.34566
C         31.65786        42.32942        -0.40856
C         32.79343        44.47881         0.22740
C         31.61187        43.73395        -0.24858
C         32.82958        45.94513         0.04660
C         31.64391        46.60566        -0.29834
C         32.78418        48.77198         0.16691
C         31.58588        48.05136        -0.28793
C         32.80103        50.29552         0.01845
C         31.59605        50.94704        -0.51785
C         32.82349        53.09911        -0.57946
C         31.60563        52.35733        -0.73220
C         32.83481        54.48325        -0.38920
C         35.19942        18.79711         1.46825
C         33.94928        18.11180         1.70365
C         35.21891        20.22707         1.54834
C         34.01947        20.93646         1.80103
C         35.28974        23.08255         1.74038
C         33.99613        22.36400         1.63877
C         35.30613        24.58077         1.59640
C         34.06640        25.27529         1.24202
C         35.32641        27.38359         1.14943
C         34.07154        26.65959         1.08677
C         35.32673        28.79779         1.13312
C         34.07842        29.52057         1.12353
C         35.29371        31.67195         1.05164
C         34.09297        30.94731         1.08839
C         35.32637        33.08325         0.77390
C         34.10826        33.81938         0.60242
C         35.33966        35.86893         0.01537
C         34.10187        35.18678         0.22770
C         35.39502        37.28114        -0.16910
C         34.18739        38.00756        -0.36515
C         35.38121        40.10234        -0.14636
C         34.17844        39.41160        -0.39778
C         35.32768        41.53225         0.18220
C         34.06896        42.27495         0.01999
C         35.37187        44.44281         0.35350
C         34.09309        43.69722         0.41091
C         35.33053        45.91368         0.71853
C         34.07010        46.66119         0.26391
C         35.29130        48.85320         0.45170
C         34.06098        48.04168         0.26402
C         35.27570        50.28337         0.03500
C         34.11166        50.95794        -0.15538
C         35.32995        53.14791        -0.23374
C         34.13398        52.36748        -0.73587
C         35.26837        54.53697        -0.07246
C         34.02359        55.18996        -0.17393
C         37.62810        15.98127         0.77750
C         36.44823        16.65721         1.06008
C         37.57596        18.80821         0.81183
C         36.38233        18.08073         1.10595
C         37.64100        20.19228         1.03741
C         36.47619        20.93002         1.37509
C         37.73585        23.08453         1.39565
C         36.54238        22.35259         1.51104
C         37.77335        24.51733         1.28328
C         36.57553        25.25749         1.30737
C         37.81274        27.35454         1.04797
C         36.56370        26.66505         1.15984
C         37.80240        28.79578         1.08593
C         36.58581        29.48673         1.16316
C         37.82046        31.68160         1.07701
C         36.55897        30.96661         1.46470
C         37.82107        33.02938         0.73998
C         36.57248        33.72037         0.52901
C         37.92865        35.84077        -0.19310
C         36.56711        35.07184        -0.03207
C         37.88825        37.31880        -0.13564
C         36.64276        38.00092        -0.14103
C         37.86847        40.16437        -0.00536
C         36.62725        39.42718        -0.07626
C         37.88744        41.59075         0.05653
C         36.62281        42.30217         0.30608
C         37.83404        44.48352         0.15446
C         36.57532        43.78004         0.23061
C         37.78632        45.92863         0.13001
C         36.61573        46.62631         0.33951
C         37.83217        48.85493         0.05403
C         36.61876        48.10243         0.41072
C         37.83553        50.23842        -0.03406
C         36.55963        50.96287        -0.42231
C         37.76372        53.12883         0.01743
C         36.56140        52.44181        -0.10074
C         37.80294        54.56161         0.19398
C         36.49120        55.32180         0.36188
C         37.77964        57.35275        -0.18286
C         36.63317        56.67360        -0.30901
C         40.15817        14.57552         0.33022
C         40.04883        15.95922         0.11869
C         38.80550        16.64150         0.36849
C         40.06589        18.86950         0.05925
C         38.74125        18.10121         0.25080
C         40.16813        20.22854         0.59160
C         38.96288        20.84499         1.13790
C         40.26523        23.06834         1.11718
C         39.00723        22.36356         1.38902
C         40.26656        24.48542         1.07871
C         39.02488        25.21300         1.11179
C         40.30599        27.34640         0.64942
C         39.02432        26.62453         1.00421
C         40.29452        28.80855         1.05197
C         39.08924        29.48054         1.16847
C         40.37298        31.69429         1.19174
C         39.06058        30.94669         1.36501
C         40.30250        33.08540         0.76033
C         39.09073        33.74909         0.59157
C         40.32537        35.90714         0.47575
C         39.12632        35.15210         0.26594
C         40.35251        37.21569        -0.31743
C         39.09841        38.03304        -0.10364
C         40.34477        40.18684         0.01455
C         39.10052        39.44998        -0.05101
C         40.33273        41.62029         0.03269
C         39.09034        42.33011         0.02480
C         40.30528        44.52372         0.10207
C         39.06404        43.79089         0.08467
C         40.33638        45.91817         0.06399
C         39.06226        46.62953        -0.16390
C         40.35386        48.84508         0.01636
C         39.08538        48.13336        -0.19246
C         40.31593        50.26211         0.04989
C         39.07492        50.93736        -0.11436
C         40.31649        53.15656         0.03089
C         39.03270        52.40420        -0.20797
C         40.27868        54.55595         0.62117
C         38.97863        55.25746         0.33463
C         40.26218        57.45984         0.27921
C         38.94597        56.75009         0.57274
C         40.27214        58.85763         0.32552
C         42.55973        14.57086        -0.00907
C         41.42401        13.92543         0.37089
C         42.45799        15.92037        -0.66320
C         41.25633        16.70882        -0.18517
C         42.54395        18.83820        -0.21736
C         41.31025        18.09276        -0.09621
C         42.61075        20.23059         0.16760
C         41.40341        20.89045         0.67692
C         42.73044        22.94345         1.25121
C         41.44425        22.28687         1.01240
C         42.74191        24.43263         1.43219
C         41.51619        25.21037         1.12178
C         42.81986        27.31106         1.10723
C         41.56079        26.59530         1.04532
C         42.81506        28.77789         1.02359
C         41.57347        29.50767         1.03435
C         42.82831        31.63205         0.83704
C         41.60651        30.91442         0.98005
C         42.83738        33.06184         0.76653
C         41.57325        33.78730         0.37121
C         42.75232        35.99658         0.91192
C         41.50720        35.23860         0.74878
C         42.81209        37.38716         0.50833
C         41.68870        38.03160        -0.27722
C         42.77592        40.20515         0.33362
C         41.56922        39.49619         0.08977
C         42.74580        41.63735         0.41018
C         41.56683        42.32694         0.17580
C         42.82268        44.53979         0.41111
C         41.61000        43.80236        -0.12832
C         42.79682        45.98593         0.35319
C         41.56558        46.67349         0.14126
C         42.79443        48.83845         0.33215
C         41.56488        48.11527         0.15222
C         42.80300        50.27128         0.36092
C         41.55473        50.99817         0.23973
C         42.73645        53.17636         0.56613
C         41.53041        52.38349         0.30614
C         42.70770        54.61782         0.19664
C         41.52745        55.31460         0.21131
C         42.68852        57.49535        -0.11551
C         41.48222        56.76295         0.07425
C         42.65576        58.89838        -0.07451
C         41.45827        59.57397         0.14596
C         44.96308        16.06475        -0.90028
C         43.74854        16.71141        -0.65623
C         44.91639        18.86740        -0.97034
C         43.71491        18.12993        -0.58453
C         44.96631        20.40426        -0.63726
C         43.82453        20.93484         0.10111
C         45.24105        23.00991         0.53322
C         44.02144        22.22367         0.78075
C         45.39752        24.35774         1.24489
C         44.07314        25.15100         1.40142
C         45.31934        27.30172         1.17611
C         44.02054        26.60624         1.15548
C         45.32095        28.80198         1.11191
C         44.02458        29.49684         0.98982
C         45.29509        31.63889         0.78265
C         44.05574        30.91683         0.86879
C         45.29334        33.05517         0.77131
C         44.04360        33.75131         0.83433
C         45.31421        35.95520         0.72989
C         44.07179        35.22185         0.99785
C         45.28863        37.36509         0.71465
C         44.02457        38.08487         0.61108
C         45.28082        40.23155         0.38714
C         44.01287        39.49724         0.42789
C         45.26331        41.71402         0.60947
C         43.94507        42.36552         0.96744
C         45.25640        44.52534         0.87256
C         43.99012        43.85046         0.69648
C         45.21398        45.99640         0.95802
C         43.98921        46.71775         0.59653
C         45.28092        48.84615         0.49889
C         44.01604        48.13101         0.52804
C         45.27759        50.29408         0.39705
C         44.03106        50.97172         0.43854
C         45.28911        53.17732         0.29615
C         44.04407        52.43764         0.58670
C         45.26526        54.56395         0.04055
C         43.97607        55.25625        -0.20066
C         45.27091        57.43867        -0.21509
C         43.96449        56.77597        -0.37089
C         46.16832        16.77007        -1.04943
C         47.38987        18.93209        -1.30654
C         46.18621        18.16528        -1.11559
C         47.43906        20.33098        -0.96921
C         46.28986        21.03002        -0.51575
C         47.65647        23.04536        -0.07525
C         46.37704        22.37124        -0.01002
C         47.72876        24.46392         0.23810
C         46.52049        25.18287         0.63352
C         47.67327        27.34894         0.27038
C         46.50466        26.55358         0.69161
C         47.73563        28.81423         0.49066
C         46.55637        29.51942         0.71865
C         47.75428        31.65397         0.48005
C         46.54095        30.94012         0.67095
C         47.74707        33.08526         0.46327
C         46.52313        33.78512         0.62140
C         47.74521        35.93446         0.40391
C         46.52288        35.22270         0.57949
C         47.72293        37.34474         0.46728
C         46.52500        38.07214         0.62154
C         47.74270        40.23921         0.67836
C         46.55341        39.51695         0.59273
C         47.77686        41.66362         0.73922
C         46.51372        42.37122         1.17175
C         47.74909        44.55600         0.82413
C         46.48499        43.86604         0.93641
C         47.79160        45.99091         0.73422
C         46.54244        46.76008         0.89805
C         47.74450        48.84251         0.02784
C         46.48926        48.16338         0.50208
C         47.75103        50.32371         0.32638
C         46.50672        51.01529         0.40006
C         47.72583        53.18419         0.24120
C         46.51058        52.46866         0.34442
C         47.72225        54.58131         0.02178
C         46.47801        55.28482        -0.08784
C         46.42864        56.73099        -0.16909
C         49.75868        18.98065        -1.88520
C         48.56489        18.29471        -1.76071
C         49.86077        20.34148        -1.51330
C         48.70326        21.00993        -1.02833
C         50.05225        23.05701        -0.73423
C         48.78731        22.37496        -0.59033
C         50.19365        24.39878        -0.11919
C         48.94181        25.13152         0.16967
C         50.23617        27.35615         0.31571
C         48.97115        26.59829         0.10647
C         50.21099        28.81738         0.16565
C         48.96944        29.51410         0.28784
C         50.21079        31.64867         0.16574
C         48.97876        30.93886         0.31340
C         50.21027        33.07936         0.15855
C         48.98197        33.79461         0.28653
C         50.22208        35.90542         0.10010
C         48.99005        35.21735         0.24463
C         50.24041        37.37398         0.02839
C         48.96129        38.11269         0.24033
C         50.27455        40.23693         0.53106
C         49.02510        39.47552         0.88092
C         50.25586        41.64644         0.54655
C         48.98112        42.37798         0.64614
C         50.18761        44.55338         0.37818
C         48.94549        43.81176         0.64452
C         50.24847        46.00893         0.60685
C         48.99538        46.70834         0.63011
C         50.19793        48.85157         0.50506
C         49.00944        48.14937         0.47884
C         50.21478        50.28706         0.33627
C         48.97440        50.99717         0.34876
C         50.24785        53.14217         0.02042
C         49.01581        52.48288         0.58600
C         50.17643        54.53868        -0.22833
C         48.99002        55.23910        -0.17567
C         52.28415        20.45229        -2.12080
C         51.11246        21.06289        -1.67675
C         52.31499        23.29335        -1.81589
C         51.15110        22.45918        -1.32244
C         52.58294        24.57881        -1.07727
C         51.49326        25.14284        -0.24213
C         52.68551        27.40385        -0.38331
C         51.55124        26.61111         0.06698
C         52.66718        28.79299        -0.21647
C         51.43064        29.50865         0.03949
C         52.66016        31.65655        -0.16362
C         51.43474        30.94006         0.01259
C         52.67128        33.07314        -0.11672
C         51.44281        33.78541         0.03888
C         52.70317        35.92970        -0.00067
C         51.44902        35.21175         0.04683
C         52.71078        37.37178         0.14841
C         51.51239        38.09004         0.23291
C         52.73862        40.21342         0.37306
C         51.50063        39.51528         0.38048
C         52.74255        41.64604         0.53948
C         51.49035        42.33600         0.56886
C         52.69914        44.54497         0.84671
C         51.49744        43.79404         0.41229
C         52.72361        46.00777         0.68430
C         51.46832        46.68860         0.64567
C         52.73269        48.85457         0.48016
C         51.47135        48.16920         0.94437
C         52.70125        50.24911         0.19842
C         51.44914        50.97684         0.19722
C         52.69010        53.02117        -0.40245
C         51.44856        52.39653        -0.05865
C         53.49879        21.17030        -2.29319
C         54.77728        23.31327        -2.41043
C         53.57668        22.53449        -2.11791
C         54.86784        24.68537        -2.02485
C         53.73003        25.27880        -1.33231
C         55.13686        27.33182        -0.95966
C         53.75662        26.78286        -1.24818
C         55.14336        28.81193        -0.54919
C         53.87789        29.53831        -0.41376
C         55.12410        31.67174        -0.50351
C         53.88807        30.94108        -0.36882
C         55.11109        33.08740        -0.45423
C         53.90709        33.79195        -0.25592
C         55.17375        35.94522        -0.13546
C         53.90957        35.23263        -0.15506
C         55.18665        37.35930         0.08671
C         53.95834        38.07469         0.19493
C         55.21986        40.18918         0.28189
C         53.96764        39.49313         0.26815
C         55.21256        41.68239         0.06734
C         53.96427        42.34822         0.56673
C         55.26436        44.53292         0.78094
C         54.00850        43.76701         0.90281
C         55.21723        45.98301         0.75083
C         53.95245        46.69513         0.68075
C         55.18253        48.82865         0.27757
C         53.94484        48.13245         0.47559
C         55.17269        50.23139         0.01832
C         53.91730        50.93358        -0.07754
C         53.86882        52.32164        -0.40672
C         56.88369        23.50891        -3.58581
C         55.81752        22.72750        -3.15673
C         56.97949        24.84066        -3.17339
C         56.04909        25.45913        -2.29795
C         57.52991        27.47481        -1.56460
C         56.29025        26.77128        -1.68101
C         57.56293        28.82287        -1.04165
C         56.37489        29.55610        -0.78450
C         57.61144        31.68301        -0.64310
C         56.35951        30.96525        -0.67870
C         57.63092        33.08198        -0.54993
C         56.36305        33.84721        -0.82503
C         57.62819        35.95257        -0.22084
C         56.38713        35.26635        -0.32056
C         57.65162        37.35158         0.02321
C         56.42104        38.06156         0.16485
C         57.69975        40.19068         0.65974
C         56.41334        39.48752         0.30648
C         57.68423        41.68940         0.44639
C         56.48779        42.38465         0.46579
C         57.73561        44.50733         0.82030
C         56.45503        43.81227         0.66143
C         57.70802        46.02112         0.80293
C         56.41573        46.71058         0.64785
C         57.64618        48.86106         0.38439
C         56.42598        48.13439         0.41408
C         57.61149        50.23892         0.11977
C         56.41204        50.90532        -0.09300
C         60.23301        25.17834        -2.98659
C         59.02655        25.85622        -2.82758
C         60.03242        27.43351        -1.31720
C         58.83949        26.90816        -1.90100
C         60.02651        28.79062        -0.80659
C         58.81215        29.51722        -0.83205
C         60.06346        31.61088        -0.40024
C         58.83127        30.92915        -0.60187
C         60.08239        33.05326        -0.33432
C         58.86103        33.78432        -0.40924
C         60.10209        35.91217        -0.28157
C         58.87237        35.21996        -0.32608
C         60.11747        37.36295        -0.22428
C         58.90564        38.07485        -0.00641
C         60.14316        40.19959         0.04803
C         58.93447        39.48690         0.15385
C         60.16857        41.65640         0.22488
C         58.95824        42.38328         0.41970
C         60.21226        44.51154         0.43139
C         58.99218        43.79656         0.51216
C         60.23064        45.97813         0.45788
C         58.92650        46.73045         0.25312
C         60.22670        48.86898         0.44187
C         58.93740        48.16580         0.80306
C         61.33566        25.56875        -2.21466
C         61.24473        26.71065        -1.43172
C         61.22473        29.46771        -0.46255
C         61.24716        30.83510        -0.27940
C         61.29931        33.78244        -0.25364
C         61.31018        35.16008        -0.25772
C         61.31697        38.10016        -0.35814
C         61.32670        39.47816        -0.25075
C         61.37524        42.37976         0.18042
C         61.39964        43.76652         0.27614
C         61.38449        46.70793         0.45151
C         61.36887        48.15356         0.34718
O         43.39652        24.83547         2.67477
O         43.39865        52.90105         1.85690
O         36.02400        48.60346         1.68497
O         43.90609        55.87991        -1.52934
O         43.58142        22.23830         2.19526
O         39.05641        47.33119        -1.45644
O         32.02305        33.89187         1.92898
O         39.15534        21.40350         2.48385
O         25.15360        26.85846        -2.07414
O         57.85914        45.31617         2.05684
O         43.41439        35.70854         2.21076
O         35.30434        23.93653         2.94414
O         45.85870        46.50416         2.17736
O         35.93723        41.79383         1.50801
O         32.03687        31.31509         2.34468
O         25.19244        40.98652         1.00000
O         58.01210        25.57484        -3.75548
O         37.26830        35.20829        -1.31872
O         39.13706        18.66851        -1.05892
O         39.78787        31.45551         2.53015
O         32.57308        49.66912         1.32053
O         49.47533        37.97456        -1.11170
O         50.91192        44.19265        -0.86864
O         45.51634        28.09545         2.40324
O         28.93155        30.05535         1.77214
O         48.20793        27.04722        -1.07698
O         36.55796        50.88802        -1.84598
O         53.22296        44.08829         2.12450
O         44.66634        19.90404        -1.97108
O         23.07610        40.76873        -2.26267
O         51.20850        24.35169         0.96709
O         51.06857        26.90974         1.41682
O         45.35321        41.23840        -0.73659
O         40.25792        36.54526        -1.57270
O         23.24694        28.80487         0.68665
O         55.33552        27.70533         0.41918
O         24.61132        33.71202         0.82740
O         33.25129        44.04983         1.57112
O         39.80545        53.00675        -1.32045
O         32.38295        37.50529        -1.93337
O         55.16980        41.85301        -1.40694
H         54.36695        41.39229        -1.73383
O         40.34359        27.36367        -0.83124
H         39.52820        27.81301        -1.14066
O         51.83997        23.77917        -3.14774
H         51.71004        22.98529        -3.71088
O         26.92889        39.14776         1.40331
H         26.47291        39.89753         1.85629
O         46.50514        42.18771         2.62328
H         45.59680        42.40829         2.94482
O         45.85361        24.02795         2.57954
H         45.04730        23.78693         3.09656
O         38.70055        56.91910         2.01365
H         39.30606        56.28961         2.47110
O         49.12061        39.20266         2.32126
H         48.98635        40.04958         2.79836
O         30.54993        28.93215        -1.29718
H         31.32072        28.40077        -1.58895
O         31.14468        22.71705         2.99572
H         31.64969        22.07265         3.55680
O         22.92871        37.42329        -2.69768
H         23.40712        36.62343        -3.02957
O         47.72105        48.72780        -1.44577
H         48.53770        49.15191        -1.78581
O         33.15909        24.19563        -0.65190
H         33.07571        25.05638        -1.11678
O         40.32656        54.42904         2.08359
H         41.18362        54.01287         2.32667
O         27.93958        37.34478        -2.54182
H         28.87902        37.33503        -2.83046
O         51.50044        48.27858         2.41428
H         50.67242        47.88019         2.75763
O         25.43100        48.87145        -2.79371
H         26.18959        49.43633        -3.05554
O         56.30501        33.97892        -2.30033
H         56.30598        33.07120        -2.67286
O         33.09217        40.28038        -2.30664
H         32.98356        39.36064        -2.64802
O         42.17698        38.05832        -1.64859
H         41.56217        37.43014        -2.13743
O         58.71708        46.79752        -1.18232
H         59.48911        47.25499        -1.57730
O         32.54764        20.49131         3.65188
H         33.40273        20.30663         4.09679
O         57.77869        40.05650         2.13142
H         58.61437        40.48129         2.42120
O         43.81625        42.23677         2.42945
H         43.01577        42.72958         2.71042
O         25.42671        44.55935         1.27714
H         25.42933        43.63805         1.61632
O         41.60827        33.80726        -1.11003
H         41.08946        34.60269        -1.40698
O         24.16675        34.89025        -2.67285
H         25.11927        34.75615        -2.93219
O         34.30777        52.22406        -2.17784
H         35.18614        51.73000        -2.29941
O         29.30649        43.77059        -2.51974
H         29.45311        44.70885        -2.76816
O         58.90150        48.06976         2.25005
H         58.86018        48.97600         2.61859
O         36.31356        55.54924         1.78826
H         37.07803        56.10692         2.09012
O         53.47491        27.20841        -2.62827
H         52.75340        26.64738        -2.98587
O         29.44692        47.99296        -2.64219
H         28.63915        47.60415        -3.04168
O         41.79026        43.84124        -1.59126
H         41.69030        44.77314        -1.88230
O         35.26382        45.91728         2.17924
H         34.48992        45.35371         2.42319
O         26.82333        34.89152        -2.51243
H         27.16424        35.76944        -2.84778
O         42.19033        15.64855        -2.09261
H         41.97156        16.50607        -2.51645
O         36.54810        31.02590         2.94440
H         36.63616        31.96633         3.20900
O         49.14509        52.63309         2.05742
H         49.19600        53.59504         2.24392
O         22.62647        27.12958        -2.57421
H         23.49499        27.11420        -3.03990
H         23.19184        23.35496         0.15544
H         21.04785        24.57673         0.34286
H         20.82128        26.91125        -0.40169
H         20.98407        28.88919        -1.75749
H         20.91839        31.31745        -1.49720
H         20.72709        33.19605        -0.82769
H         20.74827        35.63385        -0.73534
H         20.74700        37.52870        -0.56972
H         20.78696        39.97075        -0.39144
H         20.78707        41.88738        -1.22735
H         20.79199        44.30004        -0.87409
H         20.81225        46.13618        -0.39131
H         22.93873        49.78211        -1.16518
H         20.82208        48.58040        -0.68771
H         24.77930        22.35849        -0.79752
H         24.56808        50.73140        -0.61067
H         26.88684        21.17912        -0.39062
H         26.70115        51.89594        -0.41541
H         30.55316        19.11982         0.86068
H         28.53672        20.25736         0.07863
H         30.35593        54.08197        -1.22866
H         28.26603        52.81539        -1.34820
H         31.89318        18.17742         2.22688
H         31.88639        55.03747        -0.34338
H         33.92607        17.01575         1.62593
H         33.96953        56.27527        -0.00775
H         37.61462        14.88485         0.84186
H         35.56228        16.06146         1.31538
H         37.89673        58.34167        -0.65080
H         35.78804        57.10263        -0.86856
H         39.27082        13.98542         0.59319
H         39.33886        59.40232         0.52398
H         43.53274        14.06511         0.05767
H         41.47196        12.89464         0.75124
H         43.57639        59.47745        -0.22731
H         41.44621        60.67194         0.17702
H         44.99367        14.96860        -0.95950
H         45.31288        58.53488        -0.14566
H         47.10050        16.19850        -1.15257
H         47.37200        57.28965        -0.09547
H         50.63467        18.44545        -2.27368
H         48.53027        17.23668        -2.05261
H         51.08846        55.09238        -0.49182
H         49.01335        56.31722        -0.38099
H         52.30287        19.37537        -2.33306
H         52.71116        54.09026        -0.65102
H         54.38897        20.59360        -2.58130
H         54.79305        52.85471        -0.66552
H         57.64990        23.09772        -4.25522
H         55.75305        21.68093        -3.48084
H         58.54463        50.81754         0.07951
H         56.44381        51.98274        -0.29977
H         60.31337        24.36970        -3.72392
H         60.27199        49.96771         0.41813
H         62.28815        25.02805        -2.29681
H         62.14544        27.07230        -0.91961
H         62.16829        28.91206        -0.38273
H         62.20562        31.32101        -0.05394
H         62.25794        33.24884        -0.20829
H         62.27681        35.67840        -0.20554
H         62.26270        37.58315        -0.56771
H         62.28009        40.00651        -0.38023
H         62.33077        41.85422         0.05465
H         62.36916        44.27896         0.21551
H         62.36662        46.21882         0.51416
H         62.33040        48.66631         0.19606
