         429
 CSIRO Nanostructure Databank - Neutral Graphene Oxide Data Set
C          1.27014         3.37720         1.18362
C          0.08612         4.06966         1.39408
C          1.23513         6.20757         1.11494
C          0.05942         5.46936         1.36995
C          1.20456         7.67618         0.95428
C         -0.02096         8.37441         0.82689
C          1.14471        10.50570         0.58105
C         -0.04854         9.74803         0.66771
C          1.13310        11.94690         0.43462
C         -0.08211        12.67992         0.49246
C          1.10035        14.80067         0.26789
C         -0.09796        14.05661         0.40841
C          1.08686        16.24445         0.16357
C         -0.11652        16.97249         0.03334
C          1.09943        19.07649        -0.12747
C         -0.10141        18.35024        -0.14438
C          1.12204        20.54567        -0.47733
C         -0.13070        21.30180        -0.11249
C          1.12351        23.39220        -0.06522
C         -0.11566        22.65005        -0.00661
C          1.05853        24.90090         0.06738
C         -0.02344        25.54862        -0.77951
C          1.07386        27.69980        -0.34480
C         -0.03612        26.88280        -0.91350
C          1.08975        29.19713        -0.44120
C         -0.02624        29.97226        -1.03449
C          1.36834        32.05151        -1.15001
C          0.09015        31.27347        -1.33962
C          1.18250        33.46523        -0.62123
C          0.03156        34.19765        -0.75454
C          1.19418        36.33221        -0.37616
C          0.00523        35.60372        -0.51391
C          1.22037        37.77441        -0.38706
C          3.70405         3.38114         0.76224
C          2.48995         4.08404         0.99084
C          3.68737         6.27330         0.56185
C          2.44935         5.51234         0.96151
C          3.70207         7.69661         1.14215
C          2.39911         8.40979         0.87338
C          3.62098        10.53706         0.44936
C          2.38803         9.81456         0.65882
C          3.59130        11.92980         0.21524
C          2.35315        12.65539         0.26691
C          3.54907        14.84086         0.08629
C          2.33869        14.09908         0.19550
C          3.55815        16.24865         0.13733
C          2.31583        16.96379         0.15435
C          3.56896        19.10795         0.16877
C          2.31962        18.38779         0.05371
C          3.56711        20.55797         0.17870
C          2.37617        21.26294        -0.02191
C          3.58572        23.46158         0.14800
C          2.32182        22.70242         0.00015
C          3.62395        24.83079        -0.48594
C          2.37240        25.61625        -0.19262
C          3.63505        27.71941        -0.27840
C          2.38124        26.97925        -0.25220
C          3.64230        29.13374        -0.29385
C          2.39981        29.89536        -0.36601
C          3.70254        31.97194        -0.06959
C          2.41940        31.26655        -0.41237
C          3.68767        33.45473        -0.33522
C          2.39539        34.15381        -0.03460
C          3.65994        36.30772        -0.38889
C          2.43520        35.62821        -0.31469
C          3.66785        37.75633        -0.39465
C          2.40435        38.45223        -0.37885
C          6.26133         3.38989         0.64096
C          4.99346         4.01719         0.94694
C          6.23834         6.30513         0.67020
C          4.98103         5.58222         0.96867
C          6.16446         7.69630         0.57609
C          4.92288         8.43993         0.64390
C          6.07698        10.50570        -0.17912
C          4.86981         9.80004         0.39674
C          6.02754        12.00292        -0.02165
C          4.83558        12.66108         0.02386
C          6.07364        14.89811        -0.01384
C          4.80451        14.13298        -0.32431
C          6.05344        16.30313         0.13546
C          4.79762        16.98903         0.18280
C          6.02475        19.10952         0.78129
C          4.77407        18.40199         0.30458
C          6.04440        20.57561         0.44621
C          4.84725        21.24156         0.31101
C          6.14995        23.37905        -0.16084
C          4.86166        22.72134         0.27820
C          6.10058        24.88754        -0.01896
C          4.90355        25.57627        -0.18518
C          6.10620        27.72676        -0.15420
C          4.87151        27.00806        -0.20892
C          6.10590        29.15456        -0.37628
C          4.88094        29.82349        -0.44257
C          6.14376        32.02185        -0.63616
C          4.84177        31.28224        -0.84535
C          6.12652        33.39604        -0.62905
C          4.87174        34.13608        -0.51215
C          6.12796        36.29437        -0.47093
C          4.89871        35.58986        -0.48073
C          6.12451        37.74151        -0.38188
C          4.87632        38.43751        -0.38537
C          8.65045         3.39399         0.18577
C          7.46433         4.10449         0.44665
C          8.66846         6.25129         0.25834
C          7.47396         5.57395         0.48485
C          8.75110         7.70780         0.42833
C          7.41003         8.47022         0.55970
C          8.59145        10.54836         0.01585
C          7.39775         9.87819         0.19847
C          8.58714        12.02606         0.10488
C          7.29616        12.75728         0.06018
C          8.52769        14.93226        -0.14718
C          7.29987        14.22829        -0.10204
C          8.54411        16.32506         0.02173
C          7.30358        17.02651         0.21980
C          8.54375        19.12737         0.58928
C          7.31676        18.41071         0.44909
C          8.52765        20.54017         0.79520
C          7.31192        21.29359         0.62037
C          8.48426        23.50588         0.86811
C          7.31505        22.69399         0.53088
C          8.53561        24.92215         0.48478
C          7.32662        25.61527         0.16537
C          8.54666        27.84420         0.35996
C          7.30943        27.02992         0.07560
C          8.63202        29.05686        -0.59738
C          7.35701        29.87734        -0.51938
C          8.63382        32.00388        -0.54118
C          7.38055        31.26055        -0.63889
C          8.61571        33.38341        -0.50830
C          7.38998        34.15386        -0.93091
C          8.57847        36.30890        -0.34351
C          7.37343        35.60331        -0.50203
C          8.57917        37.75529        -0.29360
C          7.33427        38.43898        -0.33214
C         11.07430         3.17258        -0.61284
C          9.85653         4.02045        -0.34752
C         11.10258         6.38393        -0.29002
C          9.86805         5.56405        -0.25209
C         11.06752         7.75702        -0.50006
C          9.86506         8.47240        -0.15349
C         10.95776        10.58370        -0.91502
C          9.82575         9.85069        -0.21960
C         11.08795        12.03297        -0.48313
C          9.86193        12.77563        -0.10732
C         11.06754        14.94808        -0.41859
C          9.76886        14.20425        -0.60410
C         11.05846        16.32456        -0.12971
C          9.79719        17.03902         0.10515
C         11.08556        19.07226         0.64646
C          9.78484        18.39007         0.45165
C         11.08608        20.53410         1.01804
C          9.75738        21.22952         1.37673
C         11.03854        23.46386         0.84706
C          9.79587        22.75697         1.18414
C         11.03368        24.87093         0.74420
C          9.77836        25.62909         0.59920
C         11.08980        27.69623         0.22147
C          9.79747        27.00720         0.38784
C         11.16667        29.11812        -0.23636
C          9.89143        29.88407        -0.37458
C         11.19114        32.01740        -0.42955
C          9.87794        31.24896        -0.38596
C         11.08682        33.43166         0.09255
C          9.79426        34.15053        -0.06881
C         11.04048        36.30780        -0.13349
C          9.82591        35.61796        -0.19883
C         11.04388        37.75509        -0.20819
C          9.80194        38.44227        -0.24792
C         13.65271         3.10250        -0.65312
C         12.34046         3.54672        -0.25752
C         13.52894         6.28457        -0.68711
C         12.39224         5.77928        -0.13963
C         13.47982         7.66850        -1.30750
C         12.27970         8.46367        -0.83603
C         13.51273        10.56820        -1.11095
C         12.28519         9.85079        -0.90434
C         13.51584        12.05341        -1.28354
C         12.23058        12.81940        -1.04945
C         13.51690        14.94617        -0.71245
C         12.27705        14.26700        -0.70735
C         13.53182        16.35162        -0.43942
C         12.30285        17.02341        -0.14188
C         13.51283        19.13773         0.06761
C         12.32042        18.42609         0.12331
C         13.44667        20.61262         0.13171
C         12.26064        21.32890         0.59979
C         13.51861        23.45717         0.62681
C         12.26210        22.73082         0.64256
C         13.50938        24.89529         0.84486
C         12.27494        25.56611         0.79646
C         13.54104        27.79508         1.02871
C         12.26067        27.04104         0.86863
C         13.61136        29.22127         0.64925
C         12.49218        29.88151        -0.13731
C         13.58515        32.06510         0.42243
C         12.27254        31.29590         0.38505
C         13.56388        33.50343         0.25406
C         12.35019        34.19861         0.09158
C         13.52640        36.33784        -0.03859
C         12.30867        35.61257        -0.01536
C         13.51479        37.77677        -0.16576
C         12.26497        38.45138        -0.22548
C         16.06312         3.36257        -0.74031
C         14.77801         3.95341        -0.68418
C         16.01314         6.22003        -1.06546
C         14.72840         5.44027        -0.90591
C         15.99421         7.71446        -1.02299
C         14.77931         8.42817        -1.11285
C         15.98535        10.61022        -1.29419
C         14.72796         9.85663        -1.13758
C         16.00081        12.09091        -1.12981
C         14.77120        12.82126        -1.18141
C         15.98318        14.96518        -0.95376
C         14.76000        14.23940        -0.97148
C         16.00379        16.37223        -0.69216
C         14.76750        17.07487        -0.43848
C         16.01088        19.20435        -0.13819
C         14.77223        18.48699        -0.20172
C         16.05425        20.60949         0.22505
C         14.78473        21.37220         0.17984
C         15.96763        23.42782         0.99921
C         14.72240        22.76216         0.59036
C         16.00095        24.89914         0.77011
C         14.73603        25.62951         0.93730
C         16.02457        27.74794         1.12733
C         14.80483        27.03260         1.04191
C         15.97631        29.22071         1.36077
C         14.74353        29.94209         0.91946
C         15.98115        32.17442         0.97762
C         14.74557        31.39398         0.74756
C         16.02270        33.56612         0.48787
C         14.79114        34.23431         0.25212
C         16.00239        36.36215         0.03524
C         14.77014        35.64866         0.06900
C         15.98362        37.79303        -0.13940
C         14.73525        38.46964        -0.22281
C         18.52360         3.41756        -0.52026
C         17.27239         4.09564        -0.70543
C         18.46799         6.24962        -0.62418
C         17.27943         5.51797        -0.78580
C         18.46214         7.69201        -0.70344
C         17.24059         8.38198        -0.93231
C         18.51355        10.55990        -0.82644
C         17.28292         9.83439        -1.17013
C         18.45023        12.02252        -0.71141
C         17.21045        12.75774        -1.03548
C         18.54611        14.94656        -1.21640
C         17.21976        14.21549        -1.44287
C         18.52184        16.44115        -0.87695
C         17.22728        17.10484        -0.61275
C         18.49981        19.16508        -0.06185
C         17.24980        18.48989        -0.28320
C         18.54091        20.67015         0.01621
C         17.24168        21.26402         0.51055
C         18.53823        23.43208         1.13709
C         17.24879        22.65553         1.02575
C         18.56303        24.89633         0.96719
C         17.30136        25.64023         0.76934
C         18.51564        27.76679         1.11492
C         17.28622        27.09582         1.04491
C         18.61971        29.22900         1.53274
C         17.27637        29.97048         1.50569
C         18.52848        32.14945         0.84095
C         17.28896        31.47077         1.27838
C         18.50161        33.54689         0.56735
C         17.24285        34.25822         0.44222
C         18.46597        36.38397         0.06345
C         17.23484        35.66883         0.16856
C         18.44142        37.80403        -0.13220
C         17.20407        38.48641        -0.21298
C         19.69222         4.11884        -0.37670
C         20.89003         6.28899        -0.27333
C         19.70178         5.54920        -0.41583
C         20.88130         7.67935        -0.35195
C         19.69538         8.40617        -0.57904
C         20.94707        10.60563        -0.66048
C         19.70094         9.86823        -0.63449
C         20.98804        11.95782        -0.77930
C         19.77324        12.76554        -0.63451
C         20.94288        14.93610        -0.65328
C         19.79117        14.22733        -0.89666
C         20.93745        16.34011        -0.43884
C         19.75982        17.05503        -0.37438
C         20.88342        19.07873         0.51507
C         19.71911        18.44918         0.03297
C         20.88652        20.44471         0.86811
C         19.78194        21.23352         0.66849
C         21.02871        23.48717         0.66034
C         19.84346        22.68303         0.98834
C         20.99509        24.84374         0.72965
C         19.75983        25.58665         0.89803
C         20.88567        27.80049         0.58161
C         19.74150        27.05479         0.87665
C         20.84850        29.21047         0.45872
C         19.74595        29.96000         0.82406
C         20.91711        32.12238         0.39903
C         19.72905        31.40795         0.69345
C         20.91682        33.49945         0.25936
C         19.71921        34.24465         0.31881
C         20.90039        36.43243         0.01084
C         19.71299        35.69119         0.12842
C         20.87393        37.82510        -0.16685
C         19.67153        38.50794        -0.23988
O         19.01433        12.48175         0.59747
O          4.23565        23.34876         1.45126
O         10.85785        12.42588         0.90478
O         16.73671        10.20853        -2.49519
O         18.70918        15.95944        -2.26421
O         16.46575        22.88896         2.26693
O         10.27082        33.64098         1.28059
O          9.58132         4.87414        -1.53129
O         15.30085         5.70469        -2.25787
O          7.95204        12.44009         1.37345
O         12.61954        12.48343        -2.40853
O         16.65498        25.25110        -0.51598
O          9.02968        23.38464         2.23765
O         11.32384        28.02607        -1.21898
O         16.55387        32.14056         2.34363
O         19.29699        22.99368         2.32080
O         16.48649        29.61566         2.68551
O         12.63445        27.57137         2.18475
O         11.37904        19.51159         2.04108
O         14.05124        21.17706        -1.08320
O          4.98609         4.87710         2.18121
O          4.53939        31.34913        -2.22076
O          8.27434         8.18850         1.71476
O          0.72245        28.51013         0.82887
O         12.42347         4.62769         0.64904
O          0.70024        25.14801         1.45994
H          0.66841        26.12065         1.59287
O          9.55941        21.05625         2.80302
H          9.95686        20.18628         3.04492
O          3.59538        24.57729        -1.93121
H          3.68818        25.44003        -2.38809
O          8.41082        28.41461         1.69587
H          8.32468        27.68138         2.34120
O          2.22903        34.03370         1.45008
H          2.81946        34.70385         1.85829
O          5.99920        10.28731        -1.63820
H          5.18304        10.72732        -1.96052
O          3.95809        31.80357         1.34836
H          3.27257        32.33443         1.81900
O         19.03495        29.19886         2.93287
H         18.20768        29.13353         3.46575
O         17.04147        14.15326        -2.89980
H         17.40767        14.99609        -3.25896
O         10.55418        10.64766        -2.31591
H         11.25450        11.15278        -2.79744
O         18.63024        21.14979        -1.39820
H         17.92285        20.69463        -1.90512
O          3.68982         6.41468        -0.88089
H          3.36778         5.57933        -1.27895
O          5.94408        19.05139         2.25529
H          5.23035        19.66218         2.53902
O         13.30819         7.51430        -2.75256
H         14.03019         6.90641        -3.04805
O         13.00717        29.96176        -1.50039
H         12.77177        29.10480        -1.93100
O          1.18827        20.57288        -1.95613
H          1.28579        21.51220        -2.22328
O          8.69655        28.50015        -1.93559
H          8.75820        29.24156        -2.57313
O          7.45418        34.22902        -2.40937
H          6.98369        33.44458        -2.76737
O          3.83817         7.55354         2.57839
H          3.88315         8.44724         2.97698
O         11.78949        31.16053         1.73420
H         11.40549        32.01765         2.02510
O          1.98644        32.24276        -2.46934
H          2.94462        31.91047        -2.44833
O          4.74668        14.12014        -1.80842
H          4.59451        15.04326        -2.10486
O          6.29276        23.08925        -1.58870
H          6.97581        23.68799        -1.95647
O          9.59043        14.04048        -2.05393
H          9.58425        14.93028        -2.46551
O         11.58182        32.16604        -1.81158
H         12.08730        31.35600        -2.07564
H          1.28371         2.27851         1.20427
H         -0.84530         3.51563         1.57659
H         -0.89521         5.98440         1.54025
H         -0.97305         7.82803         0.85897
H         -1.02453        10.24451         0.58811
H         -1.03578        12.15278         0.62509
H         -1.06318        14.57572         0.47466
H         -1.08261        16.45126         0.01602
H         -1.05711        18.86394        -0.31223
H         -1.08805        20.76727        -0.04507
H         -1.04719        23.20048         0.18875
H         -0.82968        24.93356        -1.20724
H         -0.85037        27.38672        -1.45534
H         -0.98701        29.45802        -1.19000
H         -0.76351        31.79397        -1.79918
H         -0.89521        33.72229        -1.10816
H         -0.95154        36.14068        -0.58889
H          0.26518        38.31929        -0.40279
H          3.66904         2.30943         0.51785
H          2.41482        39.55206        -0.37722
H          6.24524         2.32206         0.37512
H          4.88289        39.53768        -0.36708
H          8.65965         2.30767         0.35995
H          7.32550        39.53903        -0.31008
H         10.92880         2.34368        -1.32200
H          9.80168        39.54277        -0.24977
H         13.81653         2.03562        -0.87392
H         12.25535        39.54976        -0.29317
H         16.12795         2.26583        -0.66792
H         14.72974        39.56433        -0.33481
H         18.52666         2.31874        -0.47939
H         17.20082        39.57840        -0.34734
H         20.64407         3.58831        -0.22931
H         21.83823         5.75953        -0.10210
H         21.83444         8.20987        -0.22839
H         21.89037        10.04743        -0.72773
H         21.94481        12.45657        -0.98723
H         21.88473        14.40042        -0.47060
H         21.89342        16.81136        -0.17744
H         21.80691        18.50441         0.65649
H         21.79731        20.87920         1.30466
H         21.95565        22.97215         0.36887
H         21.92307        25.39965         0.53856
H         21.82907        27.29573         0.33584
H         21.73761        29.69993         0.03755
H         21.87400        31.59003         0.32353
H         21.87272        34.00498         0.06885
H         21.87662        35.93286         0.06765
H         21.82252        38.37397        -0.24878
H         19.65685        39.59777        -0.38353
