         324
 CSIRO Nanostructure Databank - Neutral Graphene Oxide Data Set
C          1.14972         3.53529         0.17770
C         -0.05041         4.22526         0.03190
C          1.13250         6.27270        -0.60566
C         -0.06588         5.57312        -0.33463
C          1.11155         7.69968        -0.93266
C         -0.03916         8.47468        -1.00011
C          1.17136        10.64091        -1.11341
C         -0.01275         9.88158        -1.16129
C          1.20583        12.09928        -1.15043
C         -0.02805        12.83660        -0.98936
C          0.79204        15.18011        -1.02247
C         -0.21947        14.18793        -0.78930
C          1.04172        16.39899        -0.41124
C         -0.01807        17.07899         0.32224
C          0.94211        19.23178        -0.46433
C         -0.05970        18.42364         0.34024
C          0.91092        20.72010        -0.05588
C         -0.10051        21.34290         0.70584
C          1.05570        23.52006         0.70810
C         -0.06139        22.70911         1.01080
C          1.16737        24.94433         1.06678
C          0.12109        25.65695         1.67822
C          1.34030        27.77190         1.50545
C          0.20505        27.03431         1.89455
C          1.43722        29.19244         1.71904
C          3.62116         3.50285         0.19737
C          2.38134         4.18432        -0.07906
C          3.63545         6.16554        -0.86894
C          2.35401         5.54176        -0.51303
C          3.66320         7.65550        -1.05894
C          2.38513         8.42560        -1.13041
C          3.61792        10.57077        -0.83527
C          2.40757         9.90976        -0.99075
C          3.67556        11.99719        -0.83137
C          2.47574        12.73910        -1.09503
C          3.66256        14.89290        -0.63409
C          2.64901        14.15484        -1.24429
C          3.62473        16.32659        -0.42620
C          2.34327        17.08783        -0.47241
C          3.56594        19.17869        -0.07813
C          2.31005        18.47994        -0.39742
C          3.83899        20.54367        -0.47970
C          1.91255        21.59744        -0.48969
C          3.46593        23.52589         0.03670
C          2.10296        22.89964        -0.01560
C          3.42242        25.02412         0.01975
C          2.33802        25.67277         0.68757
C          3.62570        27.80924         0.56659
C          2.43241        27.08666         0.89239
C          3.71243        29.21798         0.82614
C          2.56631        29.88729         1.38703
C          6.08511         3.47861         0.50888
C          4.87082         4.11453         0.11481
C          6.14901         6.26631        -0.30077
C          4.93237         5.46376        -0.49835
C          6.16638         7.64400        -0.48773
C          4.87428         8.36293        -0.54465
C          6.14282        10.56776        -0.52357
C          4.85580         9.85145        -0.47050
C          6.14247        11.98593        -0.52369
C          4.88338        12.67092        -0.55605
C          6.16583        14.83800        -0.08564
C          4.83682        14.10239        -0.21969
C          6.13587        16.30021        -0.17840
C          4.85465        16.96193        -0.11251
C          6.13373        19.15395         0.17815
C          4.87561        18.39717         0.19743
C          6.14938        20.54981         0.26920
C          4.92632        21.27256        -0.06496
C          6.11823        23.47642         0.14264
C          4.78889        22.75930         0.07149
C          6.32900        24.78326        -0.44096
C          4.46473        25.80655        -0.44524
C          6.03872        27.76083        -0.10034
C          4.73618        27.14277        -0.02664
C          6.07969        29.18084         0.13915
C          4.89826        29.88541         0.51703
C          8.55912         3.53886         0.81316
C          7.32376         4.15577         0.54777
C          8.59097         6.38483         0.35051
C          7.31005         5.62038         0.33182
C          8.67195         7.64283        -0.48728
C          7.36697         8.41314        -0.46095
C          8.59077        10.54718        -0.85251
C          7.34253         9.81594        -0.56669
C          8.62037        12.02129        -0.78415
C          7.37996        12.72042        -0.54814
C          8.60023        14.87481        -0.56976
C          7.41380        14.12960        -0.39757
C          8.62796        16.28793        -0.37219
C          7.37119        16.96489        -0.13773
C          8.69250        19.13158         0.23914
C          7.38072        18.38657         0.24946
C          8.64952        20.60428         0.19358
C          7.41865        21.25100         0.34035
C          8.66341        23.46057         0.19986
C          7.42102        22.71680         0.42674
C          8.63333        24.87734         0.17969
C          7.39835        25.59074        -0.10431
C          8.50281        27.75725         0.05474
C          7.30588        27.04936        -0.15671
C          8.53594        29.19154         0.05102
C          7.30741        29.88103         0.07132
C         11.02878         3.58278         1.05047
C          9.81462         4.23438         0.81014
C         11.03894         6.38343         0.58985
C          9.86044         5.66278         0.56455
C         11.01050         7.89767         0.66972
C          9.85594         8.46647        -0.09871
C         11.13524        10.60501        -0.41447
C          9.92694         9.79978        -0.60131
C         11.09122        11.95636        -1.04028
C          9.80360        12.69778        -1.02024
C         11.05903        14.96014        -1.38722
C          9.79243        14.17929        -1.10886
C         11.11643        16.37131        -0.88289
C          9.87438        17.01736        -0.46394
C         11.09755        19.16921        -0.19319
C          9.90867        18.42255        -0.19627
C         11.11514        20.59318        -0.00962
C          9.89117        21.31668         0.08859
C         11.09423        23.50609         0.05178
C          9.89139        22.76368         0.12392
C         11.09123        24.91873         0.19477
C          9.84843        25.59133         0.25944
C         11.02912        27.81778         0.61909
C          9.74261        27.04775         0.44361
C         11.02912        29.25415         0.22411
C          9.78151        29.88783         0.02996
C         13.47714         3.57823         1.14245
C         12.28865         4.26934         0.98455
C         13.48615         6.45199         0.72309
C         12.29811         5.71736         0.75116
C         13.52857         7.87353         0.44621
C         12.32316         8.56684         0.29022
C         13.58621        10.71295        -0.08989
C         12.30835         9.95702        -0.08350
C         13.60025        12.12570        -0.59380
C         12.37013        12.70797        -1.23668
C         13.66651        14.95406        -1.46936
C         12.36407        14.17652        -1.75234
C         13.61716        16.43941        -1.21462
C         12.32262        17.05674        -0.82437
C         13.64816        19.17957        -0.04651
C         12.36278        18.41718        -0.23588
C         13.60953        20.66382        -0.03235
C         12.36519        21.31412        -0.04838
C         13.66910        23.56018        -0.07316
C         12.34229        22.77610        -0.19533
C         13.61794        24.98279         0.30703
C         12.33873        25.67254         0.32333
C         13.50458        27.79470         0.85285
C         12.29221        27.04541         0.55085
C         13.49404        29.33385         0.53323
C         12.24576        29.91231         0.03654
C         15.99413         3.63636         1.63215
C         14.79807         4.23238         0.85699
C         16.03975         6.46187         0.87724
C         14.74029         5.73911         1.03182
C         16.02559         7.84189         0.34893
C         14.81265         8.54214         0.21311
C         16.02703        10.58614        -0.53911
C         14.85319         9.94813        -0.12654
C         16.06377        12.02372        -0.80825
C         14.90392        12.75409        -0.89565
C         16.21244        14.92604        -0.95314
C         14.86571        14.25664        -0.79746
C         16.24283        16.40328        -0.90203
C         14.92183        17.16804        -0.92084
C         16.13035        19.15632        -0.10877
C         14.93328        18.51863        -0.36310
C         16.12200        20.63741         0.02240
C         14.83811        21.37999         0.07471
C         16.07959        23.51001         0.52261
C         14.88649        22.78425         0.20043
C         16.06446        24.90157         0.62103
C         14.82172        25.62290         0.61707
C         16.09487        27.86620         0.79453
C         14.81054        27.07061         0.94072
C         15.98895        29.24244         0.24433
C         14.78448        29.90105         0.14196
C         18.53262         3.68501         1.53407
C         17.28291         4.34031         1.23880
C         18.49728         6.29687         0.33040
C         17.26888         5.64114         0.78174
C         18.49645         7.75888         0.10585
C         17.26634         8.44434        -0.00903
C         18.63942        10.49793        -0.79091
C         17.25401         9.77795        -0.62288
C         18.65555        11.98874        -1.02909
C         17.36051        12.74078        -1.02282
C         18.65187        14.90817        -0.59473
C         17.37680        14.22221        -0.82298
C         18.66342        16.30701        -0.29171
C         17.43171        17.06368        -0.34106
C         18.60166        19.07561         0.45862
C         17.37521        18.42095        -0.04836
C         18.61022        20.58253         0.68420
C         17.37330        21.36195         0.36767
C         18.61348        23.48345         0.48360
C         17.34459        22.77064         0.92809
C         18.57709        24.87659         0.31678
C         17.38061        25.60534         0.93196
C         18.51634        27.76779        -0.10605
C         17.38879        27.11037         0.63004
C         18.29794        29.12308        -0.67425
C         17.13617        29.81264        -0.42545
C         19.73283         4.31597         1.39484
C         21.00120         6.46686         0.85076
C         19.82996         5.59238         0.68574
C         20.94800         7.78606         0.54970
C         19.73639         8.46691         0.11790
C         20.76797        10.72275         0.46535
C         19.75461         9.86339        -0.10706
C         20.84558        12.04373         0.19201
C         19.99569        12.70493        -0.87041
C         21.07925        14.89705        -0.42807
C         19.87248        14.19948        -0.60648
C         21.09724        16.25846        -0.15942
C         19.89507        16.98532        -0.05241
C         21.05381        19.15284         0.42861
C         19.89707        18.40533         0.26803
C         21.04762        20.57251         0.50360
C         19.87427        21.30598         0.51018
C         20.93404        23.44119        -0.22982
C         19.80598        22.74525         0.25331
C         20.86300        24.79398        -0.51754
C         19.69467        25.54312        -0.25433
C         20.54085        27.54769        -1.47425
C         19.63041        26.95039        -0.63579
C         20.41709        28.92084        -1.86673
C         19.34167        29.67911        -1.49415
O         13.06552        23.26715        -1.37723
O         15.55206        27.54006         2.10810
O          4.63623         9.02649         0.75352
O         13.02608        18.50316         1.11338
O         13.79719        15.87795        -2.56166
O          5.36996        25.22435        -1.35445
O         15.39461         6.30192         2.21953
O         11.84616        11.86432        -2.31330
O         19.27121         5.56458        -0.66573
O          4.06678        23.08299         1.32202
O         13.35617        28.79401         1.88502
O         18.01247         9.78464        -1.87342
O          6.64917        23.34527         1.49803
O         10.08646        14.75478        -2.46388
O         10.20857        27.48945         1.78366
O         18.02132        12.35452        -2.29152
O         18.46410        27.76265         1.38484
O          8.14542        18.59407         1.49763
O         15.79223        17.09604        -2.10591
O          4.41996         5.46249        -1.88554
O          5.41928        14.37563         1.09322
O         13.51326        11.85986         0.86412
O          4.00825        18.84797         1.27966
O          1.71550        14.82895        -2.03357
O          9.33192         9.98206        -1.96578
O          2.92115        21.12861        -1.35227
O          7.74032         6.42390         1.52522
O          3.16190         8.04999        -2.36690
O         18.47828        19.67795         1.80769
O         17.00792        21.26283        -1.03176
O         12.37938        14.06333        -3.18247
H         11.46187        13.86110        -3.47476
O         10.79615         8.22675         2.09204
H         11.50392         7.78647         2.60908
O          0.50201        19.20576        -1.85013
H          0.46302        18.26721        -2.13154
O         17.56160        25.47605         2.37418
H         18.09788        26.25071         2.66296
O          8.88751         7.19258        -1.86953
H          9.02959         8.00680        -2.40904
O         15.06286         4.03699        -0.56774
H         14.91656         3.09250        -0.78437
O         14.56171        14.49511         0.63850
H         14.47295        13.63088         1.10398
O         17.33313        22.67403         2.36857
H         17.40218        23.59587         2.72073
O         20.70692        12.54210        -2.12467
H         20.03661        12.63091        -2.83933
O         15.78044         3.72706         3.04238
H         15.69533         4.68571         3.25754
H          1.14870         2.48548         0.50361
H         -1.00120         3.71067         0.22909
H         -1.03262         6.08813        -0.41439
H         -1.02766         8.00048        -0.91720
H         -0.98356        10.38442        -1.26617
H         -0.92298        12.21899        -0.82125
H         -1.19706        14.51428        -0.40276
H         -0.81293        16.47877         0.78957
H         -0.89595        18.92625         0.84248
H         -0.96737        20.77331         1.06650
H         -0.90516        23.13515         1.57137
H         -0.79400        25.13040         1.98378
H         -0.63424        27.55752         2.37535
H          0.57966        29.71420         2.16883
H          3.55749         2.47537         0.58786
H          2.62547        30.97065         1.56689
H          6.04983         2.41483         0.79110
H          4.96600        30.97201         0.67793
H          8.57613         2.45416         1.00149
H          7.30486        30.97738         0.16332
H         11.03479         2.50287         1.26117
H          9.76430        30.97812        -0.11844
H         13.45578         2.49092         1.31555
H         12.26676        30.91321        -0.42045
H         16.08178         2.54698         1.38049
H         14.76209        30.85817        -0.40267
H         18.48679         2.70080         2.02284
H         17.02140        30.82510        -0.84221
H         20.64804         3.87621         1.81799
H         21.93171         6.02671         1.23961
H         21.86329         8.38652         0.64611
H         21.47027        10.28933         1.19221
H         21.61852        12.64770         0.68879
H         22.02992        14.35357        -0.51460
H         22.06391        16.76019        -0.02168
H         22.03526        18.66245         0.36902
H         22.01907        21.08507         0.45845
H         21.87254        22.90332        -0.41955
H         21.74983        25.29459        -0.92821
H         21.38510        26.97489        -1.88113
H         21.19558        29.35147        -2.51140
H         19.24059        30.71734        -1.84144
