         410
 CSIRO Nanostructure Databank - Neutral Graphene Oxide Data Set
C         27.90340        27.46810        -1.14112
C         27.73986        28.89040        -0.86824
C         26.66117        29.46101        -0.14719
C         27.83493        31.61780         0.02885
C         26.67755        30.81224         0.19458
C         27.87791        33.05441         0.32070
C         26.67904        33.78729         0.49998
C         27.90271        35.90076         0.47699
C         26.69229        35.16716         0.55494
C         27.90611        37.35008         0.48511
C         26.71149        38.10330         0.45489
C         27.93943        40.21577         0.51749
C         26.73041        39.48993         0.45604
C         27.94035        41.68205         0.48290
C         26.75657        42.42698         0.28388
C         27.98865        44.52305         0.40810
C         26.78099        43.81816         0.27859
C         28.00542        45.97528         0.42105
C         30.43040        27.33066        -1.13834
C         29.08832        26.78062        -1.25813
C         30.62750        28.69470        -1.39878
C         28.76941        29.78383        -1.21136
C         30.32028        31.59493        -0.38242
C         28.95932        31.03193        -0.60239
C         30.36609        33.01583         0.14917
C         29.09766        33.76623         0.26962
C         30.38854        35.90759         0.45319
C         29.13056        35.18500         0.38873
C         30.37019        37.31363         0.58493
C         29.14652        38.05022         0.53058
C         30.40868        40.18953         0.69817
C         29.15982        39.48559         0.58140
C         30.37518        41.63515         0.95676
C         29.15264        42.39092         0.66427
C         30.46957        44.51771         0.60236
C         29.20764        43.80590         0.57479
C         30.48279        45.97226         0.15078
C         29.16138        46.66584         0.36770
C         32.77177        24.48227        -0.36979
C         31.60830        25.18489        -0.57527
C         32.84622        27.30340        -0.57715
C         31.60945        26.60430        -0.73972
C         32.88068        28.74089        -0.59304
C         31.71495        29.45005        -0.93509
C         32.88090        31.65602        -0.46340
C         31.61866        30.94292        -0.85728
C         32.82134        33.06367         0.00969
C         31.64413        33.76729         0.10759
C         32.86811        35.89887         0.27138
C         31.64125        35.20130         0.32958
C         32.94221        37.32816         0.59910
C         31.62090        38.05986         0.80072
C         32.89609        40.22680         0.61179
C         31.63559        39.52767         0.70283
C         32.92570        41.64166         0.67954
C         31.70024        42.38548         1.01490
C         32.94456        44.51984         0.76406
C         31.67337        43.84416         0.78043
C         32.91958        45.96987         1.02884
C         31.65812        46.74576         0.73821
C         33.01173        48.82712         0.57631
C         31.82419        48.17833         0.42047
C         35.33116        22.99785         0.00155
C         35.28166        24.41707        -0.22837
C         34.04015        25.13644        -0.32371
C         35.31631        27.23912        -0.30958
C         34.06823        26.55840        -0.40096
C         35.30387        28.68785        -0.03595
C         34.08877        29.46517        -0.28908
C         35.37101        31.55412        -0.11915
C         34.12314        30.86161        -0.23820
C         35.38885        33.01298         0.11494
C         34.09369        33.76963         0.21957
C         35.31624        35.92346        -0.12067
C         34.10295        35.23093         0.07348
C         35.32262        37.38564        -0.13652
C         34.14268        38.09647         0.23510
C         35.29472        40.26155        -0.03710
C         34.11479        39.51556         0.29705
C         35.27294        41.67642        -0.01391
C         34.10580        42.37173         0.38600
C         35.40083        44.51339         0.39425
C         34.13754        43.81862         0.53368
C         35.50556        45.91954         0.81585
C         34.21399        46.70708         1.11625
C         35.48703        48.81062         0.91470
C         34.23796        48.15511         0.92121
C         35.58651        50.24384         1.16626
C         37.77713        22.91615        -0.15386
C         36.51418        22.30198         0.10114
C         37.73573        24.32638        -0.56481
C         36.50160        25.11484        -0.39031
C         37.82364        27.25454        -0.44833
C         36.53979        26.53921        -0.38994
C         37.86409        28.70326        -0.37058
C         36.63721        29.44076        -0.05083
C         37.83398        31.61508        -0.38310
C         36.59722        30.89691        -0.21531
C         37.82365        33.06540        -0.42642
C         36.59459        33.77833        -0.22269
C         37.75245        35.88483        -0.70976
C         36.52772        35.17527        -0.30984
C         37.73733        37.39480        -0.77731
C         36.50361        38.11234        -0.40046
C         37.70717        40.24447        -0.62378
C         36.51711        39.54593        -0.35374
C         37.69657        41.69308        -0.84924
C         36.42403        42.46003        -0.51066
C         37.75354        44.63400        -0.36496
C         36.52529        43.90160        -0.16732
C         37.84122        46.00278        -0.06645
C         36.68617        46.70007         0.42786
C         37.90321        48.89394         0.26533
C         36.68367        48.07894         0.63293
C         38.03599        50.08075         1.19849
C         36.77804        50.84123         1.39283
C         40.27338        20.17409         0.34710
C         39.08380        20.82865         0.17180
C         40.27365        22.97921        -0.09589
C         39.02153        22.24505        -0.05492
C         40.29496        24.37086        -0.29445
C         39.06536        25.08654        -0.64907
C         40.31392        27.25043        -0.61301
C         39.01833        26.55556        -0.54701
C         40.34058        28.75754        -0.65793
C         39.03904        29.44667        -0.49621
C         40.32495        31.58314        -0.60851
C         39.03032        30.88014        -0.47479
C         40.31971        33.08991        -0.57488
C         39.03245        33.79316        -0.48734
C         40.24899        35.94333        -0.38894
C         39.04597        35.20857        -0.52061
C         40.23388        37.40419        -0.42768
C         39.02965        38.08074        -0.64374
C         40.28341        40.28983        -0.76267
C         38.98253        39.53494        -0.81351
C         40.23032        41.74769        -0.35042
C         39.00042        42.44535        -0.90286
C         40.30655        44.62165        -0.56808
C         39.00026        43.93788        -0.76258
C         40.33768        46.01637        -0.43030
C         39.10545        46.72936        -0.16209
C         40.41719        48.80098         0.05526
C         39.16960        48.08351         0.13045
C         40.49191        50.13334         0.49733
C         39.39765        50.72586         1.30240
C         40.55712        52.88242         1.27543
C         39.52436        52.13255         1.71413
C         42.75382        20.21214         0.53724
C         41.51681        20.88744         0.35463
C         42.75986        23.00612         0.19197
C         41.51204        22.28839         0.16550
C         42.74926        24.40369         0.04710
C         41.51604        25.11931        -0.13308
C         42.69560        27.26530         0.36517
C         41.51691        26.51782        -0.20159
C         42.71569        28.74913         0.14161
C         41.57451        29.47247        -0.21084
C         42.66784        31.64839         0.44460
C         41.54665        30.87666        -0.18589
C         42.72864        33.11114         0.09050
C         41.52649        33.83001        -0.15352
C         42.64349        35.96643         0.36299
C         41.46022        35.23416        -0.10769
C         42.65046        37.46662         0.32189
C         41.44688        38.15400        -0.18918
C         42.70049        40.30208        -0.30047
C         41.50774        39.54927        -0.37342
C         42.69773        41.69669        -0.61714
C         41.52309        42.45412        -0.66880
C         42.74029        44.60574        -0.90580
C         41.52333        43.89473        -0.74914
C         42.77866        46.03128        -0.85725
C         41.56814        46.73612        -0.58557
C         42.76119        48.91113        -0.81871
C         41.60076        48.15856        -0.46165
C         42.65343        50.35658        -0.68407
C         41.59944        50.93037         0.10726
C         42.53708        53.18660        -0.14854
C         41.58723        52.33420         0.41285
C         43.95629        20.89473         0.51625
C         45.26340        23.02300         0.33491
C         44.00915        22.30131         0.34292
C         45.28818        24.42560         0.12214
C         44.01929        25.12050        -0.13012
C         45.26540        27.34952         0.18313
C         44.00547        26.63404        -0.07731
C         45.25040        28.74550         0.35201
C         43.95079        29.46087         0.65453
C         45.18027        31.61769         0.27714
C         43.98204        30.92893         0.32864
C         45.19385        33.06708         0.23980
C         43.96326        33.77526         0.19047
C         45.22744        35.98126         0.24266
C         43.96777        35.23092         0.42361
C         45.22849        37.42859         0.18118
C         43.97109        38.20449         0.39334
C         45.24612        40.30132        -0.39567
C         43.99555        39.73325         0.23387
C         45.26791        41.64196        -0.83282
C         43.96477        42.32893        -1.04671
C         45.24482        44.54470        -1.39015
C         43.93939        43.82717        -1.26292
C         45.28035        45.97856        -0.88702
C         43.99400        46.77668        -1.05298
C         45.25925        48.87759        -1.42965
C         43.99046        48.18859        -1.14671
C         45.40427        50.16835        -1.91208
C         43.48918        51.30795        -1.33105
C         43.45444        52.67532        -1.07404
C         47.70341        23.06192         0.49952
C         46.51977        22.36607         0.51773
C         47.74401        24.48370         0.34403
C         46.49467        25.17169         0.16458
C         47.71169        27.33416         0.20978
C         46.48599        26.61516         0.14804
C         47.70768        28.76056         0.26420
C         46.46078        29.47646         0.34540
C         47.64621        31.65129         0.38926
C         46.44682        30.91475         0.33711
C         47.66300        33.07287         0.30997
C         46.41898        33.78495         0.24628
C         47.66524        35.89305        -0.18714
C         46.39550        35.22315         0.11998
C         47.65939        37.40196        -0.32939
C         46.40068        38.13187        -0.09477
C         47.69571        40.25222        -0.38527
C         46.44539        39.56909        -0.27452
C         47.71678        41.65230        -0.66489
C         46.50428        42.31332        -1.02180
C         47.88788        44.48261        -1.37483
C         46.53564        43.75751        -1.39719
C         47.81374        45.95616        -1.04359
C         46.54900        46.64839        -1.36610
C         47.83039        48.83625        -1.28435
C         46.54667        48.12747        -1.48614
C         47.82838        50.23179        -1.58316
C         46.66792        50.83675        -2.00235
C         50.23743        24.57507         0.65645
C         48.96562        25.20845         0.36344
C         50.17794        27.36517         0.15650
C         48.96054        26.63640         0.22028
C         50.17700        28.77497         0.23581
C         48.93531        29.45771         0.33638
C         50.21863        31.66184         0.52675
C         48.90779        30.90733         0.58629
C         50.17328        33.11647         0.31255
C         48.92245        33.79418         0.28625
C         50.12374        35.94839         0.22140
C         48.92791        35.20236         0.11753
C         50.08626        37.38425         0.20518
C         48.92245        38.11816        -0.07853
C         50.14204        40.25694         0.05883
C         48.91734        39.53877        -0.11079
C         50.16085        41.67783        -0.09922
C         48.96606        42.38377        -0.51206
C         50.18952        44.53781        -0.46388
C         49.00199        43.77610        -0.66430
C         50.21716        45.95025        -0.52276
C         48.97951        46.66991        -0.81994
C         50.21546        48.80272        -0.62097
C         48.98245        48.12337        -0.90456
C         51.40846        25.23683         0.51471
C         52.71491        27.38027         0.07208
C         51.44156        26.59364        -0.14399
C         52.67562        28.80140         0.08811
C         51.43324        29.51918         0.17529
C         52.65873        31.66339        -0.01716
C         51.45293        30.92177         0.20642
C         52.64385        33.11693         0.03365
C         51.39087        33.81791         0.20199
C         52.60870        35.93859         0.40455
C         51.38242        35.24804         0.29274
C         52.61292        37.36127         0.74272
C         51.27619        38.12621         0.62339
C         52.56665        40.25298         0.54973
C         51.33707        39.57066         0.39308
C         52.58034        41.67467         0.42376
C         51.37749        42.36192         0.07933
C         52.66700        44.58684         0.15644
C         51.43206        43.79550        -0.24048
C         52.58788        46.04941         0.25561
C         51.40831        46.69323        -0.18585
C         51.34467        48.13172        -0.25092
C         55.15071        27.44205         0.10064
C         53.94723        26.72587         0.07706
C         55.14488        28.83811         0.03425
C         53.89737        29.53685         0.01559
C         55.12467        31.65073        -0.47594
C         53.87167        30.95448        -0.14510
C         55.10454        33.20763        -0.41524
C         53.83790        33.85548        -0.04040
C         55.07975        35.98953         0.34199
C         53.85184        35.26752         0.23205
C         55.08248        37.42038         0.54175
C         53.85771        38.12733         0.65261
C         55.03705        40.27852         0.84094
C         53.81685        39.54566         0.72006
C         54.99612        41.71481         0.96804
C         53.78567        42.38409         0.72814
C         54.95450        44.62859         1.29518
C         53.71114        43.84653         0.90812
C         54.94532        46.07086         1.00024
C         53.80342        46.72600         0.62991
C         56.38209        29.58388        -0.05273
C         56.38616        30.91261        -0.31255
C         56.34168        33.95797        -0.18854
C         56.31219        35.26454         0.19266
C         56.28433        38.18234         0.63552
C         56.25733        39.54732         0.82427
C         56.19087        42.49284         1.24827
C         56.19559        43.84626         1.37266
O         43.99355        25.96580        -1.36079
O         29.69012        29.37679        -2.18104
O         31.01887        41.97515         2.23898
O         31.97996        46.36488         2.09979
O         52.50646        44.10169        -1.21326
O         43.19493        37.94018         1.61273
O         30.44563        31.86521         1.06550
O         40.50075        28.01050        -1.89795
O         36.76487        42.12223        -1.89336
O         49.62520        31.27761         1.82489
O         44.32425        50.91566        -2.37886
O         34.82490        33.33815         1.44268
O         32.38488        31.62634        -1.88886
O         51.80544        37.69663         1.92148
O         40.48644        32.36300        -1.86149
O         46.53064        47.22725        -2.70643
O         39.09015        43.25075        -2.09142
O         39.72014        39.98548        -2.05222
O         35.06273        46.19649         2.18452
O         55.05810        32.47344        -1.68469
O         38.86007        49.84074         2.36656
O         47.66368        36.54280        -1.51918
O         43.76099        42.90389        -2.38117
O         43.17586        35.49406         1.64307
O         45.86817        44.19744        -2.64357
O         53.91185        44.26596         2.28693
O         36.00373        29.01282         1.21103
O         37.61843        36.58143        -2.00482
O         38.40037        24.57495        -1.85425
O         32.41853        37.59625         1.94637
O         42.34294        31.66181         1.93356
H         42.77565        32.45750         2.31726
O         44.07885        40.28940         1.59634
H         43.63426        39.63270         2.18578
O         51.41514        26.33320        -1.59693
H         50.58779        25.84192        -1.78880
O         48.35772        44.49736        -2.76380
H         47.58521        44.77277        -3.31295
O         37.64789        49.47066        -1.05823
H         37.58269        48.73359        -1.70149
O         40.03739        41.77419         1.10053
H         40.87354        41.48435         1.52463
O         42.61706        27.04030         1.82046
H         43.08271        27.80760         2.25195
O         30.72269        45.96674        -1.29546
H         29.94686        45.54869        -1.72533
O         45.43956        45.81954         0.56521
H         45.22228        46.67190         0.99866
O         43.83418        29.41176         2.14047
H         43.19747        30.14093         2.37932
H         26.98211        26.86343        -1.11925
H         25.80022        28.83785         0.13381
H         25.79712        31.23394         0.69886
H         25.71775        33.25888         0.55502
H         25.73638        35.69584         0.66459
H         25.73862        37.59618         0.41535
H         25.77060        40.02165         0.42000
H         25.79311        41.91798         0.15108
H         25.84324        44.37867         0.15475
H         27.04235        46.50260         0.49537
H         29.00812        25.68421        -1.32896
H         29.14490        47.76541         0.37954
H         32.72056        23.38836        -0.28401
H         30.65820        24.63824        -0.65100
H         33.06176        49.89768         0.32989
H         30.96351        48.72805         0.01289
H         34.39212        22.45410         0.17173
H         34.65773        50.81243         1.31672
H         36.47235        21.23529         0.36147
H         36.82159        51.88863         1.72437
H         40.28798        19.08439         0.49330
H         38.15248        20.24627         0.17965
H         40.64074        53.94072         1.56317
H         38.76691        52.55222         2.38987
H         42.74792        19.12187         0.68017
H         42.51410        54.26149         0.07778
H         44.88509        20.32199         0.63979
H         44.13394        53.34157        -1.62037
H         48.64192        22.50423         0.61988
H         46.55307        21.27800         0.66190
H         48.76293        50.80803        -1.56754
H         46.67375        51.88036        -2.34334
H         50.24420        23.54875         1.05036
H         50.24783        49.89955        -0.66986
H         52.35065        24.73060         0.76880
H         52.24441        48.71535        -0.01467
H         56.10856        26.90271         0.11261
H         53.98859        25.62867         0.04162
H         55.87808        46.63740         1.13880
H         53.85097        47.81920         0.52388
H         57.32995        29.03271         0.03508
H         57.33630        31.44295        -0.46342
H         57.30580        33.46931        -0.38348
H         57.26634        35.78993         0.33205
H         57.26011        37.68260         0.57699
H         57.21362        40.08020         0.91204
H         57.14965        41.96260         1.33246
H         57.14826        44.38376         1.49266
