         249
 CSIRO Nanostructure Databank - Neutral Graphene Oxide Data Set
C         30.23598        31.76229         1.19203
C         30.34654        33.00407         1.17706
C         30.40639        36.13386         0.49659
C         30.38056        37.20193        -0.16445
C         30.51021        39.95842        -2.00747
C         30.80947        41.13544        -2.29887
C         32.67035        28.84244         1.49875
C         31.59768        29.44943         1.43131
C         32.69676        31.64578         1.35257
C         31.35844        30.89453         1.56230
C         32.72030        33.09292         0.98162
C         31.46822        33.86401         0.91132
C         32.77480        35.81803        -0.01086
C         31.47758        35.20131         0.59659
C         32.80168        37.39037        -0.06348
C         31.46206        37.91050        -0.75764
C         33.32863        40.01671        -1.60042
C         31.39513        38.85644        -1.74687
C         33.09521        41.43377        -1.63546
C         31.89559        42.03696        -2.07076
C         33.00613        44.17894        -1.84491
C         32.03974        43.46629        -2.17144
C         35.43452        27.27990         1.11978
C         35.29894        28.68656         1.52412
C         34.02067        29.47267         1.81064
C         35.22204        31.63556         1.09191
C         33.94709        30.81540         0.99528
C         35.19134        33.00811         0.96898
C         33.93967        33.73604         0.86541
C         35.25423        35.99334         0.79523
C         33.96493        35.22828         0.73128
C         35.33491        37.37129         0.25164
C         34.19179        37.88595        -0.62714
C         35.40048        40.17632        -0.34575
C         34.26973        39.39788        -0.79627
C         35.41539        41.57537        -0.55961
C         34.13451        42.30471        -0.91628
C         35.45105        44.43834        -0.94242
C         34.41688        43.63776        -1.68183
C         35.61397        45.85845        -0.88768
C         37.79920        27.30475         0.46547
C         36.52793        26.75653         0.83298
C         37.79250        28.69987         0.59964
C         36.57886        29.42201         1.09330
C         37.76786        31.59989         0.55545
C         36.47397        30.88007         0.78428
C         37.77396        33.03572         0.98923
C         36.47275        33.77341         1.09743
C         37.71819        35.94549         0.90197
C         36.52871        35.25678         0.95486
C         37.74319        37.39715         0.80947
C         36.51047        38.08131         0.42408
C         37.72036        40.26120         0.41923
C         36.55891        39.51560         0.14662
C         37.74240        41.66663         0.21651
C         36.56811        42.32785        -0.25284
C         37.69464        44.53855         0.18400
C         36.52907        43.78672        -0.35312
C         37.74850        46.07810         0.18596
C         36.58195        46.56551        -0.55065
C         40.11891        24.53886        -0.48821
C         39.10326        25.21344        -0.18574
C         40.23309        27.25289        -0.12197
C         38.98954        26.59868         0.06305
C         40.34974        28.70372         0.31958
C         39.01481        29.44080         0.40927
C         40.27011        31.55462         0.26737
C         39.03635        30.82205         0.48013
C         40.18956        33.06787         0.15945
C         39.10025        33.79325         0.97367
C         40.31079        35.97888         0.97768
C         39.02508        35.27489         0.52882
C         40.24033        37.38929         1.14494
C         38.96001        38.07490         0.96843
C         40.18495        40.36477         1.05575
C         38.90403        39.56817         0.98605
C         40.24202        41.74866         0.53097
C         38.98578        42.42737         0.29202
C         40.20610        44.49732        -0.29961
C         38.98333        43.80968         0.15586
C         40.13258        45.99709        -0.62201
C         39.11394        46.74125         0.30538
C         40.27486        48.75330        -0.56980
C         39.26703        48.16842        -0.15940
C         42.65609        24.54064        -0.96642
C         41.39776        25.11010        -0.66789
C         42.65633        27.31396        -0.79070
C         41.42803        26.56816        -0.51780
C         42.69375        28.76876        -0.68275
C         41.34314        29.46153        -0.56676
C         42.64190        31.68186        -0.51375
C         41.40885        30.92659        -0.17546
C         42.69844        33.15785        -0.20350
C         41.52546        33.66254         0.61062
C         42.78652        35.56611         1.24709
C         41.50451        35.17152         0.85880
C         42.77203        37.68885         1.49837
C         41.43058        38.23990         1.30427
C         42.76092        40.32012         1.29920
C         41.43186        39.60261         1.14236
C         42.69698        41.81599         0.98393
C         41.45162        42.40721         0.44685
C         42.83983        44.45048        -0.29371
C         41.53225        43.73729        -0.17997
C         42.82628        45.85460        -0.79590
C         41.53834        46.66218        -0.75410
C         42.90010        48.68734        -1.11115
C         41.65992        48.21693        -0.37735
C         43.69183        25.22868        -1.14582
C         45.02796        27.33709        -1.63934
C         43.84348        26.62557        -1.17176
C         45.08803        28.87863        -1.37122
C         43.86595        29.51362        -0.82850
C         45.12089        31.66872        -0.58370
C         43.92241        30.95923        -0.63198
C         45.19387        33.08864        -0.24524
C         44.00572        33.77486         0.06690
C         45.20241        35.85314         0.66082
C         44.03013        35.06242         0.68765
C         45.15770        37.32282         0.96989
C         43.90940        38.15749         0.92454
C         45.17643        40.34683         0.71692
C         43.87766        39.62008         0.46698
C         45.24243        41.71415         0.74866
C         43.99512        42.52673         0.74240
C         45.36048        44.37198        -0.40740
C         44.01065        43.83403         0.03891
C         45.31966        45.91510        -0.53428
C         44.15397        46.57491        -0.77567
C         43.90975        47.96359        -1.01471
C         47.37948        27.52962        -1.87736
C         46.38898        26.79804        -1.68495
C         47.59212        28.91743        -1.59255
C         46.40008        29.55953        -1.27574
C         47.68290        31.72008        -0.65769
C         46.40357        30.93250        -0.69742
C         47.65961        33.20147        -0.50988
C         46.42421        33.82094        -0.14270
C         47.63727        35.96340         0.03379
C         46.43232        35.23735         0.18133
C         47.65608        37.39923         0.30692
C         46.41606        38.09129         0.75948
C         47.61540        40.21286         1.09492
C         46.42554        39.56959         0.38086
C         47.68836        41.69007         1.01096
C         46.53123        42.41237         0.74087
C         47.81283        44.47660         0.33517
C         46.58508        43.80685         0.35156
C         47.74437        45.78473        -0.28357
C         46.66105        46.38224        -0.46391
C         50.21732        29.21886        -1.89472
C         48.83137        29.69022        -1.81654
C         50.16641        31.87415        -1.24505
C         48.87858        31.12262        -1.33116
C         49.97504        33.24235        -1.32259
C         48.81918        33.92057        -0.79047
C         50.22978        36.00037         0.16487
C         48.91261        35.43456        -0.61769
C         50.15178        37.18659         0.88730
C         48.95264        38.05372         0.76913
C         50.06840        40.21045         1.88635
C         48.82488        39.40587         1.45167
C         50.22504        41.40821         0.90267
C         49.00147        42.33316         1.12147
C         50.41752        44.18616         0.34236
C         49.05549        43.85726         0.80900
C         51.28982        29.84578        -1.88577
C         52.62523        32.05577        -1.25332
C         51.50206        31.08193        -1.04509
C         52.75894        33.22977        -0.86362
C         51.86826        34.35356        -0.87319
C         52.47104        35.88771         0.98301
C         51.54065        35.29057         0.07657
C         52.52202        37.00427         1.52090
C         51.28999        37.79047         1.69605
C         52.50116        40.11678         2.00875
C         51.30750        39.27144         2.03791
C         52.56537        41.27302         1.50439
C         51.60032        42.16174         1.02525
C         51.43245        43.50339         0.69179
O         48.48357        38.17791        -0.61909
O         40.79330        43.78731        -1.44611
O         37.40231        45.35932         1.38830
O         44.79962        28.28876        -2.69086
O         48.59471        30.79092        -2.75024
O         39.33866        40.18659         2.25003
O         47.22891        31.01104         0.53869
O         51.04442        38.27208         3.03029
O         42.48030        32.72778        -1.57821
O         34.32297        35.88947         1.97335
O         46.03508        37.72353         2.10542
O         32.10554        31.40376         2.67460
O         36.30670        29.07421         2.49363
O         36.90093        31.25309        -0.58125
O         37.15324        33.23460         2.30587
O         46.39052        39.70895        -1.01292
O         32.60391        39.13201        -2.42256
O         42.89412        36.51469         2.24773
O         42.09417        46.23107        -2.01604
O         50.91674        34.13343        -1.86834
O         49.08093        43.34130         2.16063
O         43.30283        42.62979         2.05514
O         47.77459        39.58554         2.43649
O         34.02026        29.81126         3.17666
H         34.27633        29.03359         3.71292
O         34.37822        37.25545        -1.91469
H         35.12048        37.69689        -2.37636
O         39.57654        46.64945         1.63465
H         38.80764        46.52658         2.23532
O         40.79265        29.42817        -1.91054
H         41.39534        29.91669        -2.50992
O         34.93520        43.32981        -2.96721
H         35.21171        44.15767        -3.41210
O         32.83259        35.29223        -1.34357
H         32.19737        35.78356        -1.90580
O         39.52001        33.86266         2.35716
H         38.69619        33.85793         2.90750
O         41.87440        33.06394         1.89544
H         41.16746        33.30663         2.54360
O         41.94299        48.26779         0.99869
H         41.86570        49.18954         1.31879
O         33.84427        30.41632        -0.39120
H         34.09888        31.16658        -0.96817
O         39.52403        46.07581        -1.91939
H         40.19810        45.76750        -2.56881
O         50.15580        40.86430        -0.41622
H         50.19460        41.58454        -1.07981
O         33.54098        42.70736         0.34261
H         33.45776        41.91947         0.91919
O         48.99088        35.97055        -1.94872
H         48.88571        36.95224        -1.88750
O         39.91351        33.27641        -1.23102
H         40.71342        33.01316        -1.74794
O         49.86223        40.75799         3.17731
H         48.97994        40.45464         3.50396
O         51.52075        30.69758         0.31693
H         52.32747        30.17143         0.49450
O         38.98740        35.41712        -0.91670
H         38.97176        36.37613        -1.11846
O         43.63567        39.71221        -0.94681
H         44.53914        39.69181        -1.37365
O         45.51461        43.88075        -1.76418
H         46.34909        44.24469        -2.12935
O         43.14321        40.15918         2.67857
H         43.33266        41.05657         3.04354
O         32.74589        37.91894         1.25719
H         31.99391        37.51252         1.73815
O         40.91590        28.68833         1.65377
H         40.27625        28.26417         2.26321
