         294
 CSIRO Nanostructure Databank - Neutral Graphene Oxide Data Set
C          1.25730         2.18740         0.89295
C          1.22517         3.58902         0.79394
C          2.38476         1.43898         0.61028
C          2.45827         4.33491         0.68668
C          1.32184         6.48212        -0.18672
C          1.41619         7.67952        -0.77941
C          2.41670         5.87810         0.66060
C          2.69899         8.46083        -0.92748
C          1.43575        10.69828        -1.11420
C          1.42994        12.06133        -1.26978
C          2.61844         9.96942        -0.81369
C          2.69249        12.87742        -1.21891
C          1.43494        15.13010        -1.19133
C          1.51542        16.45485        -1.40030
C          2.52019        14.27714        -0.56899
C          2.78466        17.20681        -1.24269
C          2.80798        18.68025        -1.02217
C          3.55542         2.04464        -0.11175
C          3.72122         3.54222         0.26474
C          4.91532         1.48606         0.19092
C          4.86748         4.27627        -0.41591
C          3.77041         6.51537         0.34744
C          3.82537         7.90575        -0.09706
C          5.01690         5.71669         0.04663
C          5.05628         8.60189        -0.09870
C          3.81972        10.70502        -0.53906
C          3.80775        12.10707        -0.56108
C          5.05654         9.99748        -0.25889
C          4.98131        12.80552         0.06913
C          3.86787        14.98449        -0.46614
C          3.97494        16.43929        -0.76847
C          4.97044        14.31123        -0.06048
C          5.02746        17.24295        -0.03051
C          3.94166        19.34707        -0.73117
C          5.27632        18.62793        -0.66513
C          6.08663         2.02966        -0.58477
C          6.19100         3.53746        -0.32618
C          7.38068         1.30198        -0.29144
C          7.37806         4.16834        -0.22254
C          6.27199         6.41163        -0.44646
C          6.32669         7.88329        -0.06555
C          7.45565         5.64548         0.15937
C          7.54558         8.51606        -0.04670
C          6.35527        10.69544        -0.40468
C          6.29155        12.18318        -0.45425
C          7.64981        10.02284         0.10088
C          7.56504        12.95657        -0.30866
C          6.17422        15.01756         0.54023
C          6.29397        16.49164         0.23350
C          7.49525        14.35450         0.21289
C          7.43453        17.17036         0.54311
C          6.42458        19.34488         0.01601
C          7.51038        18.63790         0.45338
C          8.60554         1.93167        -0.32234
C          8.65985         3.43032        -0.54791
C          9.84411         1.23356        -0.43759
C          9.83425         4.09733         0.18278
C          8.75734         6.36349        -0.15812
C          8.77568         7.73586        -0.14304
C         10.02230         5.54643        -0.33090
C         10.07635         8.45819        -0.11148
C          8.93224        10.68017        -0.51751
C          8.87052        12.19633        -0.19846
C         10.23599         9.97842         0.02843
C          9.94304        12.84217         0.61587
C          8.66362        14.98599         0.84491
C          8.57838        16.42440         1.13027
C          9.86494        14.28242         1.03580
C          9.79921        17.17005         1.58047
C          8.75689        19.29160         0.84646
C          9.85133        18.63118         1.31051
C         11.08201         1.93169        -0.54559
C         11.12367         3.31494         0.00725
C         12.27785         1.34830        -0.91676
C         12.40477         4.06403         0.06197
C         11.22596         6.19497         0.32789
C         11.27267         7.66802         0.28047
C         12.38301         5.50927         0.42833
C         12.27477         8.38466         1.15489
C         10.98099        10.63363         1.19202
C         11.02908        12.01027         1.20752
C         12.27858         9.91947         0.81632
C         12.33553        12.75993         0.96695
C         11.03739        14.94776         1.40711
C         11.09311        16.40117         1.87782
C         12.33174        14.19346         1.54154
C         12.34839        17.12964         1.39867
C         11.11353        19.36746         1.71639
C         12.38645        18.59705         1.41227
C         13.52373         2.13407        -1.27312
C         13.55013         3.59226        -0.78483
C         14.82366         1.46269        -0.91955
C         14.82840         4.38530        -0.73923
C         13.67802         6.08105         0.97088
C         13.64270         7.64234         1.19892
C         14.80885         5.69290         0.01644
C         14.93663         8.41265         1.16618
C         13.55408        10.56800         1.42570
C         13.63910        12.07498         1.31014
C         14.92713         9.92214         1.15748
C         14.85494        12.83548         0.88277
C         13.45285        14.98410         0.86278
C         13.46709        16.44517         1.02491
C         14.68580        14.26482         0.42402
C         14.65535        17.15219         0.40483
C         13.55518        19.25791         1.20657
C         14.86978        18.52460         1.04853
C         16.00000         2.14359        -0.82873
C         16.11855         3.60352        -0.81697
C         17.27604         1.31334        -0.84840
C         17.38711         4.14683        -0.55193
C         15.81112         6.56840        -0.19792
C         16.22049         7.62158         0.80386
C         17.70015         5.56914        -0.62922
C         17.46762         8.43594         0.39674
C         16.18404        10.68979         0.82177
C         16.23680        12.22138         0.66039
C         17.41860         9.93896         0.35581
C         16.89131        12.64355        -0.67064
C         15.94548        14.99476         0.13661
C         15.94528        16.34966         0.28360
C         16.81299        14.24913        -0.89975
C         17.23822        17.11301         0.16571
C         15.92197        19.26065         0.26949
C         17.05634        18.58559        -0.18635
C         18.39294         1.95107        -0.07011
C         18.46343         3.32696        -0.03620
C         19.38693         1.13151         0.55724
C         19.46374         4.04855         0.84716
C         18.77570         6.25646        -0.13287
C         18.68513         7.79088        -0.34765
C         19.98755         5.38933         0.24350
C         19.90515         8.66989        -0.04771
C         18.45407        10.68754        -0.42229
C         18.28251        12.01976        -0.75887
C         19.76652        10.03435        -0.45767
C         19.44216        12.82673        -1.11673
C         18.16265        14.98546        -1.21633
C         18.28269        16.40444        -0.66471
C         19.43479        14.19150        -1.05589
C         19.37699        17.10903        -1.09478
C         18.08864        19.26800        -0.83477
C         19.21054        18.55344        -1.51556
C         20.43119         1.70868         1.23580
C         20.56149         3.12723         1.34307
C         21.59761         3.70940         2.04032
C         21.03457         5.94135         1.19596
C         21.19755         8.27727         0.35326
C         21.75185         5.12283         2.04809
C         22.31366         9.12061         0.17978
C         20.90280        10.81126        -0.77724
C         20.67078        12.07103        -1.57567
C         22.18297        10.33446        -0.48369
C         21.89224        12.93289        -1.74023
C         20.72818        14.98894        -0.94478
C         20.60915        16.42900        -1.44028
C         21.90875        14.24700        -1.50893
C         21.69715        17.18029        -1.81286
C         20.50095        19.30529        -1.61213
C         21.64486        18.62273        -1.85247
O         17.98608         9.20192         1.51434
O         14.36029         7.95200         2.42961
O         15.96162        14.45088        -2.00090
O          9.94397        12.85159        -0.90459
O         15.86229        10.36956         2.20738
O         11.71487        10.12761        -0.59380
O          5.97989        14.91387         1.99439
O         11.99241         3.24552         1.21226
O          4.73383         6.11253         1.39413
O          8.76292        16.80911         2.57348
O         14.48029        12.69287         2.30850
O         13.90314         4.47866        -1.89536
O          3.82321        16.72829        -2.19506
O         21.53343         7.19024         1.14259
O         13.65382        14.62819        -0.55095
O         16.68601         6.31888        -1.25589
O          7.63215        14.08359        -1.23460
O         11.05667         8.00886        -1.13194
O          3.51939         3.83183         1.63613
O          6.30967        11.42519        -1.69267
O          9.52754         4.13052         1.59161
H         10.38053         3.98437         2.06977
O          4.96097        12.45275         1.48689
H          5.30142        13.23009         1.99814
O          4.36849        17.37797         1.32390
H          5.26548        15.54808         2.23354
O         16.11360        12.02373        -1.70434
H         15.73928        12.79364        -2.23023
O         11.70348         8.24334         2.47087
H         12.33312         8.68519         3.09237
O         11.20386        16.37651         3.34194
H         10.28385        16.25288         3.67843
O          2.10837         6.26283         2.02451
H          2.85961         5.94316         2.57387
O          6.33247         6.34210        -1.87954
H          7.23142         6.61123        -2.16544
O          8.84184         3.56936        -1.97595
H          8.10363         3.09384        -2.41404
O         20.70927         5.14581        -0.99151
H         20.10330         4.69187        -1.61454
O          3.10256         8.19479        -2.32835
H          4.00034         8.56933        -2.46171
O          7.73791        10.34347         1.51424
H          7.05460         9.83305         1.99897
O         18.69197        18.41303        -2.90613
H         18.35808        17.48830        -3.00534
O          7.32278         5.71628         1.59564
H          8.06184         5.18092         1.97854
O         16.60605         6.88070         1.98433
H         17.01611         7.53100         2.59808
O         15.40453        18.27656         2.39477
H         15.42046        19.13095         2.87548
O         11.15788        20.67349         1.14750
H         11.28005        20.58477         0.18006
O          2.08488        14.01632         0.79109
H          1.89734        14.87195         1.22976
O          3.11097        13.15039        -2.59475
H          3.33071        12.29682        -3.02438
O         18.15915        15.23160        -2.66778
H         17.21606        15.01573        -2.94006
O         18.72347         4.48063         2.03139
H         18.37472         3.68030         2.47595
O          3.27126         1.90254        -1.53131
H          2.36165         2.22803        -1.69703
O          8.87656        10.51098        -1.92637
H          9.53782        11.11837        -2.32390
O         20.32689        11.59745        -2.92348
H         19.93282        12.35362        -3.40855
O         20.97014        15.12157         0.49479
H         20.19950        15.59256         0.88139
O         10.33777         5.49261        -1.73925
H         10.64586         6.39702        -1.99466
O         13.47723         2.13521        -2.73425
H         13.70979         3.05445        -3.01732
O         13.30126        10.34059         2.84138
H         14.06908        10.73682         3.31584
O         14.27145        17.38996        -0.97778
H         14.19023        16.49820        -1.39656
O         13.90391         5.45487         2.24194
H         14.58484         6.00306         2.70119
O          5.87391         1.88218        -2.03104
H          5.02225         1.40336        -2.16134
O         17.80825        17.12182         1.52513
H         17.08379        17.42879         2.12650
O         17.03683        -0.02206        -0.40546
H         16.78960         0.00806         0.54113
O          5.76992        18.45595        -2.01507
H          5.11640        17.89516        -2.50452
O          4.52329         4.34517        -1.82417
H          4.93486         3.56311        -2.26784
O          5.12905        18.30048         2.13643
H          5.94831        17.79503         2.37208
O         12.41291        12.68954        -0.47089
H         11.74101        13.26109        -0.89960
O         17.09296        12.71968         1.70117
H         16.70737        12.41500         2.55318
O         12.58061        14.08244         2.96106
H         12.27950        14.92205         3.39027
O         18.44437         8.00639        -1.75910
H         19.27818         7.84757        -2.24775
H          0.32895         1.66350         1.16693
H          0.26577         4.12096         0.83266
H          2.27574         0.34598         0.53559
H          0.35028         5.96323        -0.19360
H          0.54431         8.06234        -1.33180
H          0.49230        10.14781        -1.24483
H          0.49346        12.56348        -1.55129
H          0.46532        14.63394        -1.35183
H          0.63394        17.00755        -1.76154
H          1.85062        19.21882        -1.09739
H          5.11445         1.33323         1.26651
H          3.91393        20.43854        -0.59194
H          7.33895         0.20247        -0.23990
H          6.47484        20.44244        -0.05418
H          9.83214         0.13894        -0.55942
H          8.82020        20.38288         0.71162
H         12.27757         0.29356        -1.23571
H         11.06507        19.50513         2.83408
H         14.86513         0.36226        -0.95250
H         13.56372        20.35937         1.24544
H         17.60123         1.23633        -1.92553
H         15.79132        20.32938         0.03053
H         19.29999         0.04004         0.47117
H         17.98889        20.35438        -0.99933
H         21.21051         1.07965         1.69206
H         22.34397         3.08637         2.55446
H         22.56905         5.57143         2.62804
H         23.29531         8.76706         0.52047
H         23.07384        10.93568        -0.70673
H         22.78375        12.44896        -2.16895
H         22.83954        14.80791        -1.68111
H         22.67680        16.71084        -1.97601
H         20.48969        20.40421        -1.56915
H         22.59009        19.16494        -2.00360
