         653
 CSIRO Nanostructure Databank - Neutral Graphene Oxide Data Set
C          5.93202        31.65893        -0.77263
C          5.92764        33.02289        -0.82954
C          8.33150        27.37295        -0.14598
C          8.31813        28.77380        -0.10522
C          7.13082        29.52433        -0.40485
C          8.34075        31.66078        -0.19959
C          7.12841        30.91253        -0.45921
C          8.33063        33.04832        -0.29701
C          7.13219        33.78703        -0.60015
C          8.38239        35.93866        -0.57971
C          7.15171        35.18252        -0.65463
C          8.40714        37.37132        -0.66613
C         10.75675        23.04059         0.40205
C         10.73428        24.47094         0.29924
C          9.54351        25.20498         0.06208
C         10.73827        27.35084         0.32962
C          9.52352        26.62080         0.07524
C         10.70859        28.76383         0.45399
C          9.52087        29.49338         0.23882
C         10.72566        31.64110         0.44129
C          9.54206        30.93441         0.20736
C         10.82106        33.02741        -0.08416
C          9.55591        33.83567         0.08453
C         10.86054        35.96269        -0.57026
C          9.58649        35.23778        -0.45811
C         10.85973        37.41854        -0.33998
C          9.58493        38.11427        -0.46541
C         10.77509        40.27327        -0.23844
C          9.59579        39.53503        -0.47351
C         10.80565        41.66679        -0.30999
C         13.37361        18.73634         0.61067
C         13.31345        20.16395         0.65665
C         12.05180        20.87989         0.55852
C         13.22024        23.04364         0.53811
C         11.95068        22.28001         0.53887
C         13.16071        24.50809         0.85762
C         11.94048        25.23252         0.50546
C         13.21771        27.38195         0.65190
C         11.96203        26.63512         0.51473
C         13.19651        28.76407         0.83754
C         11.92003        29.45254         0.93049
C         13.22940        31.78029         1.15900
C         11.91341        31.00933         0.98927
C         13.33533        33.10779         0.43397
C         12.14043        33.72661        -0.16037
C         13.35996        35.97063        -0.00318
C         12.16404        35.21268        -0.40563
C         13.30950        37.38825         0.01968
C         12.04464        38.08451        -0.10220
C         13.29432        40.27657         0.01999
C         11.99824        39.54594         0.27473
C         13.29352        41.69564        -0.08726
C         12.02037        42.43195        -0.20316
C         13.25046        44.62813        -0.44870
C         11.99659        43.81115        -0.26849
C         13.21591        46.06681         0.11317
C         15.90206        14.41301         0.78634
C         15.81163        15.82689         0.81562
C         14.63271        16.57304         0.70007
C         15.81066        18.74182         0.88173
C         14.60809        18.02127         0.72670
C         15.87791        20.22685         0.69801
C         14.52394        20.87195         0.80403
C         15.67196        23.11427         1.31151
C         14.52920        22.32575         0.68217
C         15.73133        24.51107         0.63668
C         14.46165        25.27183         0.97067
C         15.72776        27.34835         0.47529
C         14.46959        26.68931         0.66005
C         15.65848        28.83198         0.44690
C         14.48260        29.47968         1.19529
C         15.72210        31.69278         1.04658
C         14.45911        30.95998         0.86448
C         15.76725        33.16158         0.85953
C         14.52590        33.82709         0.51486
C         15.76971        35.98409         0.41434
C         14.54921        35.26315         0.28092
C         15.75358        37.41618         0.32405
C         14.51947        38.12101         0.20144
C         15.74730        40.27734         0.24202
C         14.50596        39.56652         0.14951
C         15.75698        41.72472         0.12427
C         14.50214        42.40310        -0.05167
C         15.75415        44.64827         0.09168
C         14.46656        43.88014         0.05681
C         15.76312        46.10508        -0.14575
C         14.53655        46.80798        -0.10480
C         15.77341        48.92555        -0.26027
C         14.54878        48.19811        -0.22260
C         15.80316        50.33182        -0.37558
C         18.45191        10.26163         0.40755
C         18.47381        11.64545         0.76138
C         17.23394        12.31217         0.73906
C         18.35594        14.36302         1.29245
C         17.14072        13.70788         0.90258
C         18.23833        15.80263         1.56957
C         17.09579        16.55341         0.95348
C         18.25436        18.77169         1.72487
C         17.09661        18.05140         1.00577
C         18.32441        20.24876         1.42303
C         16.95969        20.90064         1.60019
C         18.32591        23.11638         1.20791
C         17.02777        22.40222         1.41006
C         18.26329        24.46524         0.52257
C         17.02175        25.27369         1.00321
C         18.27812        27.42949         0.51646
C         16.95305        26.69561         0.49191
C         18.20804        28.82490        -0.13918
C         16.93081        29.57699         0.26292
C         18.32215        31.65377         0.81251
C         17.02071        30.92781         0.89279
C         18.28690        33.15274         0.85846
C         16.97757        33.85029         0.77777
C         18.23364        35.98905         0.57501
C         16.99690        35.27494         0.58110
C         18.22319        37.40765         0.49145
C         16.98540        38.13318         0.39275
C         18.20229        40.29785         0.58995
C         16.94823        39.56185         0.39605
C         18.24135        41.80384         0.35426
C         16.96253        42.44079         0.06489
C         18.25444        44.61644        -0.55625
C         16.97630        43.87802        -0.26638
C         18.26614        46.08537        -0.33454
C         17.01328        46.78607        -0.23039
C         18.24817        48.91630        -0.05423
C         17.01804        48.21107        -0.19442
C         18.25536        50.35459        -0.07935
C         17.02306        51.05225        -0.34580
C         18.26133        53.17285        -0.58290
C         17.05272        52.44526        -0.59838
C         18.29487        54.56455        -0.87358
C         20.34873         6.64953        -2.10507
C         20.56220         7.71881        -1.26400
C         19.49997         8.13173        -0.28277
C         20.87981        10.24009         0.19022
C         19.60222         9.58220         0.11017
C         20.95571        11.56907         0.77305
C         19.72888        12.29527         1.05408
C         20.68324        14.49020         1.99803
C         19.58989        13.69543         1.46462
C         20.74254        15.87777         1.98786
C         19.47677        16.59397         1.85398
C         20.82071        18.71048         1.26799
C         19.51744        18.01567         1.41611
C         20.81097        20.19693         1.17345
C         19.51955        20.90764         1.20136
C         20.73807        23.04882         0.69417
C         19.58552        22.35976         1.00593
C         20.75464        24.50918         0.46745
C         19.58261        25.22500         0.50772
C         20.73454        27.41376        -0.05805
C         19.45322        26.61491        -0.11078
C         20.72114        28.78275         0.00805
C         19.49646        29.57117         0.15394
C         20.71819        31.76503        -0.06995
C         19.52317        30.92483         0.34768
C         20.74578        33.18877         0.44031
C         19.53596        33.88338         0.54933
C         20.73156        35.99971         0.58673
C         19.49829        35.29736         0.58771
C         20.69298        37.42500         0.58728
C         19.47783        38.09311         0.51078
C         20.71605        40.32919         0.18210
C         19.45596        39.55739         0.29368
C         20.72390        41.81179         0.25061
C         19.51268        42.48219         0.04754
C         20.79299        44.62163        -0.19409
C         19.56988        43.83620        -0.62419
C         20.79371        46.08592        -0.57429
C         19.47727        46.78466        -0.26075
C         20.70680        48.87506         0.35094
C         19.46460        48.17945        -0.00708
C         20.71659        50.40622         0.42080
C         19.45742        51.10380         0.05668
C         20.69409        53.26869        -0.02358
C         19.46389        52.48520        -0.18829
C         20.75722        54.62393        -0.58942
C         19.49477        55.32491        -0.86023
C         20.79543        57.46164        -0.83568
C         19.50714        56.70826        -1.02679
C         20.79869        58.83236        -1.44431
C         22.28870         4.53172        -4.56360
C         21.20637         5.04616        -3.78991
C         22.72561         6.65596        -2.72126
C         21.40984         6.10037        -2.89365
C         22.92284         7.78134        -1.94172
C         21.83688         8.37924        -1.20080
C         23.34193        10.15678        -0.34866
C         21.99266         9.55709        -0.40869
C         23.46290        11.53652         0.21662
C         22.27454        12.18444         0.82861
C         23.66873        14.23578         1.09680
C         22.58165        13.37141         1.48058
C         23.78223        15.54323         1.56297
C         21.93966        16.68424         2.12730
C         23.33618        18.72847         1.50928
C         22.05632        17.98046         1.65382
C         23.26724        20.07332         0.75939
C         21.98156        20.85585         0.94209
C         23.27101        23.00355         0.59558
C         21.98550        22.25515         0.36415
C         23.37465        24.39293        -0.01445
C         21.95936        25.09182        -0.29926
C         23.19655        27.31550         0.40696
C         22.04067        26.68419        -0.38008
C         23.17895        28.78124         0.62803
C         22.00747        29.52935         0.08797
C         23.18780        31.72874         0.73505
C         22.03035        31.02073         0.12305
C         23.24594        33.13596         0.58349
C         21.99256        33.87961         0.49212
C         23.22581        36.03169         0.64503
C         21.97757        35.29473         0.59233
C         23.23798        37.43338         0.68590
C         21.95389        38.19157         0.88650
C         23.25591        40.34754         0.49151
C         22.00157        39.58080         0.28160
C         23.17127        41.81107         0.86284
C         21.95453        42.51248         0.30715
C         23.28522        44.60161         0.04184
C         21.95910        43.92887         0.10932
C         23.29062        46.10553        -0.04458
C         22.01093        46.81931        -0.05283
C         23.22714        48.92389         0.25619
C         21.99977        48.17837         0.18892
C         23.22419        50.35023         0.18007
C         22.01394        51.06799         0.21395
C         23.27248        53.18479        -0.31942
C         22.04123        52.52283         0.13364
C         23.24167        54.52080        -0.77181
C         21.96970        55.21363        -0.86834
C         23.18217        57.25764        -1.86564
C         21.93150        56.61047        -1.36617
C         23.23761        58.72868        -1.83708
C         22.00636        59.46622        -1.78094
C         23.29616        61.52072        -2.08851
C         22.07051        60.88319        -1.97804
C         23.57046         4.95488        -4.37267
C         25.02307         6.87391        -3.69079
C         23.92719         5.92750        -3.28584
C         25.25687         8.00744        -2.95737
C         24.34367         8.28204        -1.77143
C         25.54036        10.55890        -1.65983
C         24.32698         9.74396        -1.40489
C         25.85461        11.69085        -0.70627
C         24.61155        12.37471        -0.17353
C         25.88157        14.47667        -0.03453
C         24.66322        13.70382         0.17364
C         25.82816        15.93364         0.16752
C         24.62543        16.54165         0.91289
C         25.79323        18.78402         0.69314
C         24.66238        18.00218         1.25696
C         25.76305        20.21020         0.79400
C         24.52604        20.89993         0.92025
C         25.74432        23.07835         0.84463
C         24.47944        22.32590         0.82277
C         25.73439        24.48701         0.83216
C         24.39744        25.21350         0.83444
C         25.72450        27.42698         0.82465
C         24.53894        26.64025         0.28197
C         25.70038        28.85092         0.85153
C         24.42300        29.54483         0.89811
C         25.89366        31.79383        -0.27298
C         24.26444        30.90766         1.23005
C         25.77496        33.21391         0.24260
C         24.48983        33.88577         0.49308
C         25.70191        36.07375         0.49589
C         24.45485        35.28529         0.55196
C         25.71333        37.49502         0.92817
C         24.44869        38.20980         0.83786
C         25.61365        40.36820         1.48256
C         24.43404        39.59548         0.93824
C         25.67710        41.83304         1.07004
C         24.49730        42.52018         0.71024
C         25.72837        44.62309         0.67095
C         24.52460        43.91105         0.49927
C         25.69297        46.11463         0.90191
C         24.49677        46.82583         0.34500
C         25.72136        48.93902         0.29614
C         24.47463        48.22313         0.32976
C         25.71487        50.33723         0.05397
C         24.48157        51.04993         0.01018
C         25.72025        53.10942        -0.59553
C         24.48761        52.44185        -0.30459
C         25.67929        54.46300        -1.07256
C         24.45632        55.14103        -1.19579
C         25.71568        57.25225        -1.75808
C         24.46071        56.43949        -1.99570
C         25.70678        58.61773        -1.82196
C         24.47867        59.39101        -1.90242
C         24.49787        60.79708        -2.01744
C         26.43451         8.80366        -3.14608
C         27.88259        10.72057        -2.52337
C         26.67865         9.99486        -2.44196
C         28.06241        12.00086        -1.89414
C         26.79571        12.67072        -1.41014
C         28.31141        14.53914        -0.42166
C         27.00389        13.89574        -0.56695
C         28.30467        16.03330        -0.12675
C         27.03037        16.73071         0.06046
C         28.21471        18.87309         0.17740
C         26.98535        18.12754         0.26670
C         28.21148        20.24116         0.48675
C         26.99896        20.94072         0.71130
C         28.21820        23.10789         0.82589
C         26.99139        22.37848         0.82571
C         28.18905        24.53946         0.86079
C         26.93949        25.23684         0.85423
C         28.17412        27.40352         0.91949
C         26.93828        26.69292         0.87957
C         28.15375        28.82222         0.76246
C         26.95304        29.55960         0.68074
C         28.20973        31.69649         0.37887
C         27.03152        30.99417         0.33603
C         28.25195        33.14926        -0.05538
C         26.97182        33.87422         0.33762
C         28.21011        36.01692         1.00532
C         27.00129        35.34727         0.43183
C         28.17672        37.48628         1.32294
C         26.88411        38.17460         1.12492
C         28.18799        40.37841         1.19345
C         26.89603        39.65129         1.12281
C         28.12112        41.78946         1.71581
C         26.89827        42.52758         1.17351
C         28.15791        44.66825         1.26466
C         26.92770        43.93625         0.98499
C         28.24452        46.13527         0.97735
C         26.98124        46.82504         0.60449
C         28.17265        48.89616        -0.02077
C         26.95484        48.19707         0.32566
C         28.18064        50.25553        -0.25773
C         26.95688        51.03187        -0.17477
C         28.25530        53.16665        -0.57116
C         26.95215        52.40353        -0.46828
C         28.18102        54.32000        -1.58786
C         26.91772        55.13737        -1.44636
C         26.93684        56.48438        -1.68305
C         29.26798        12.65933        -1.85249
C         30.55184        14.85199        -1.53319
C         29.56429        13.85604        -0.96924
C         30.59858        16.20030        -1.15113
C         29.47240        16.84142        -0.49701
C         30.63618        18.99371        -0.44672
C         29.43677        18.21153        -0.25404
C         30.68653        20.32695        -0.02100
C         29.52909        20.90995         0.75743
C         30.68950        23.08279         0.69267
C         29.47951        22.41187         0.71142
C         30.68863        24.51941         1.01304
C         29.41689        25.27572         0.91180
C         30.68437        27.40521         0.92272
C         29.42256        26.67564         0.93090
C         30.68954        28.77105         0.90199
C         29.45145        29.50403         0.57524
C         30.72020        31.76520         0.79191
C         29.50336        31.00017         0.42483
C         30.75569        33.13752         0.78470
C         29.54377        33.89794         0.36684
C         30.72866        36.00981         1.33166
C         29.51651        35.35173         0.75357
C         30.70683        37.51319         1.51257
C         29.44501        38.26135         1.36912
C         30.70365        40.40878         1.34972
C         29.47391        39.64470         1.33718
C         30.66451        41.84907         1.37331
C         29.42973        42.52376         1.52975
C         31.15909        44.95443         1.11276
C         29.27121        43.94114         1.67271
C         31.00287        46.34604         0.58626
C         29.53295        46.84354         0.54904
C         30.58358        48.71275        -0.83868
C         29.30556        47.99723        -0.44585
C         30.56704        50.11943        -0.98421
C         29.41481        50.91362        -0.70390
C         29.43537        52.28593        -0.86317
C         31.73518        17.00983        -1.43351
C         32.99520        19.10834        -1.12532
C         31.80113        18.36115        -1.02236
C         33.07112        20.44051        -0.65877
C         31.89126        21.06781        -0.11390
C         33.15744        23.14366         0.23121
C         31.93509        22.43073         0.32132
C         33.23685        24.52994         0.58018
C         31.99891        25.23240         1.01304
C         33.20920        27.38670         1.28478
C         31.99064        26.69084         0.64350
C         33.25670        28.84634         0.86394
C         31.95315        29.54778         0.78340
C         33.23064        31.72948         1.32141
C         31.91808        30.99567         1.14758
C         33.21672        33.19094         1.17797
C         31.99211        33.86354         1.05813
C         33.19113        36.01490         1.06979
C         32.00822        35.29908         1.08889
C         33.12309        37.48472         0.72848
C         31.95328        38.26015         1.28954
C         33.19428        40.33361         0.92779
C         31.94458        39.65758         1.21199
C         33.22642        41.81019         0.91844
C         31.96925        42.59949         1.17423
C         33.07519        44.48879        -0.25365
C         31.98929        44.00349         0.62207
C         32.97660        45.73258        -0.83552
C         31.65647        46.46741        -0.80202
C         31.69490        47.93698        -1.13144
C         34.28843        21.15932        -0.69026
C         35.57421        23.22407        -0.30943
C         34.36130        22.49898        -0.24668
C         35.64525        24.60974         0.01090
C         34.42019        25.24435         0.46413
C         35.74407        27.43962         0.70705
C         34.50008        26.64743         0.94519
C         35.72921        28.92519         0.79893
C         34.52212        29.60749         1.02965
C         35.70748        31.74362         1.02992
C         34.50129        31.00786         1.11279
C         35.67782        33.17132         1.17716
C         34.46293        33.89705         1.20846
C         35.65118        36.07899         1.00856
C         34.45391        35.33978         1.11312
C         35.63628        37.49940         0.78441
C         34.43138        38.20511         0.81256
C         35.63863        40.33365         0.44471
C         34.39511        39.63280         0.73822
C         35.58961        41.69351         0.12018
C         34.38131        42.44148         0.21294
C         34.27924        43.70775        -0.33611
C         36.83237        25.34459        -0.13285
C         38.14525        27.56200         0.06923
C         36.83027        26.85037        -0.16695
C         38.17543        28.91430         0.36144
C         36.93824        29.63777         0.66700
C         38.17365        31.78638         0.71408
C         36.93926        31.04872         0.81905
C         38.19089        33.17369         0.89454
C         36.95566        33.87304         1.27817
C         38.17859        36.10503         0.77558
C         36.94051        35.42023         1.20419
C         38.11764        37.47223         0.51574
C         36.89081        38.20953         0.58577
C         36.85273        39.59081         0.37549
C         39.39392        29.68111         0.31972
C         40.61863        31.83603         0.36566
C         39.40235        31.06400         0.46020
C         40.61354        33.19792         0.47345
C         39.39590        33.93567         0.71337
C         39.37416        35.33775         0.66539
O         27.53626        40.18433        -0.10055
O         22.39728        30.28586        -1.11147
O         21.35231        53.15657         1.27512
O         32.68771        29.21193        -0.45881
O         22.85865        39.88040        -0.84808
O         29.64528        30.13067        -0.76164
O         11.55057        33.03290        -1.34352
O         16.46251        31.09606         2.22340
O         17.49112        17.33154        -0.22685
O         37.07856        34.71160         2.47502
O         17.78792        22.98142         2.55262
O         18.26112        41.18493         1.73345
O         30.67412        36.55042         2.67489
O         28.05255        36.43881         2.38457
O         13.69341        24.92970         2.15786
O         23.90840        10.31369         0.99486
O         29.02453        47.03517         1.88582
O         32.44720        31.25164         2.48727
O         15.05609        44.30945         1.33794
O         30.34549        44.66273         2.20765
O         22.84130        27.81209         1.73162
O         26.45936        35.95905        -0.78596
O         22.13806        56.75287        -2.80405
O         20.08855        18.15484         0.08430
O         17.35969        44.20947        -1.66315
O         24.33569        10.71025        -2.50751
O         20.61921        49.58829         1.63342
O         14.03589        22.73915        -0.64119
O         29.79970        34.96351        -0.62357
O         24.29140        18.51106         2.57987
O         25.25713        31.38890        -1.22528
O         23.49010        45.23428        -1.27444
O         24.63219        16.44642        -0.54725
O         11.69079        35.56722        -1.74154
O         18.55133        32.36609         2.08344
O         15.92840        29.51269        -0.82262
O         32.93923        42.39834         2.25444
O         28.54649        15.01935         0.95114
O         23.05519        15.99672         2.66208
O         18.55001        16.23168         2.93220
O         31.43575        24.84045         2.28074
O         19.98058        39.89849        -1.03957
O         11.66727        30.19992         2.17719
O         35.52911        26.79176         2.00348
O         21.77184        13.80167         2.52883
O         18.61169        27.66314         1.90531
H         18.40340        26.84060         2.41193
O         28.79380        47.35939        -1.66043
H         28.62858        48.06498        -2.32020
O         28.49009        53.81547         0.72383
H         28.60681        53.10894         1.39358
O         19.81002        43.53877        -2.03953
H         18.92817        43.53128        -2.48127
O         19.64673         7.31741         0.90395
H         20.52405         7.51142         1.29485
O         23.92601        25.27306         2.19468
H         23.65055        26.19168         2.41587
O         21.59078        24.69707        -1.65299
H         21.77423        23.71695        -1.72405
O         21.04449        57.62651         0.60916
H         20.22713        57.98035         1.01812
O         15.27948        23.24347         2.69519
H         16.03696        23.65782         3.17009
O         24.55276        56.01332        -3.38904
H         23.62431        55.93873        -3.71372
O         18.20555        28.70030        -1.56884
H         17.27150        28.79030        -1.87324
O         29.82269        20.59579         2.17144
H         29.87263        19.61939         2.25300
O         32.81432        37.45653        -0.73548
H         32.90517        38.37445        -1.07225
O         19.17297        26.37000        -1.52258
H         19.99887        25.99864        -1.91400
O         24.90841         7.56786        -0.63989
H         24.93488         6.61328        -0.89952
O         33.02600        27.37450         2.71022
H         33.91047        27.23761         3.12053
O         12.14423        46.77372        -0.50495
H         12.21694        46.60187        -1.46897
O         21.92853        22.05455        -1.10459
H         22.62931        21.38795        -1.32328
O         23.97305        24.13558        -1.30529
H         24.48123        24.94526        -1.57197
O         17.12721        25.41299         2.44873
H         16.32743        25.89026         2.76171
O         18.07646        18.64698         3.15234
H         17.32343        19.23477         3.41481
O         28.25722        33.10099        -1.49987
H         28.55020        33.98488        -1.81983
O         16.49164        20.69747         2.96012
H         16.87662        21.42086         3.50549
O         25.45132        40.33356         2.92658
H         24.57518        40.74318         3.12218
O         21.88060        38.46906         2.33444
H         21.84851        37.61023         2.80732
O         30.77523        45.74445        -1.71097
H         31.05564        45.93832        -2.62893
O         22.35030        27.02636        -1.76047
H         22.08088        26.24865        -2.31293
O         26.11127        13.16007        -2.59905
H         25.68870        12.39989        -3.05538
O         36.43157        27.21397        -1.54314
H         37.10169        26.84535        -2.15660
O         15.66188        24.46573        -0.79573
H         16.39734        23.90596        -1.14405
O          9.47908        34.02935         1.54966
H          8.60908        34.43640         1.75049
O         24.48034         5.13808        -2.14708
H         23.80297         4.46946        -1.90688
O         24.85956        26.57389        -1.14397
H         24.16720        27.07987        -1.64317
O         20.50318        31.94569        -1.50053
H         21.05511        31.26108        -1.95455
O         32.15084        26.67045        -0.79427
H         32.19313        27.60992        -1.10742
O         25.51771        46.21326         2.38742
H         25.77667        47.12207         2.65479
O         11.85128        39.54255         1.74377
H         11.82107        40.47888         2.03567
O         29.34401        55.13008        -1.44286
H         29.47246        55.25671        -0.47697
O         16.35524        20.49156        -0.66306
H         15.76363        20.02640        -1.29218
O         31.68285        47.24873         1.48362
H         31.19369        47.22441         2.33540
O         23.25004        19.68359        -0.66948
H         22.45807        19.12020        -0.81962
O         18.12054        24.07471        -0.87385
H         18.30515        24.88575        -1.42368
O         30.28528        13.27966         0.17079
H         30.03934        13.82062         0.95854
O         25.14333        31.50332         2.09044
H         25.76843        30.83426         2.43796
O         27.93185        41.66789         3.15619
H         27.93349        42.56760         3.54530
O         13.42026        44.80094        -1.89374
H         13.34125        43.92139        -2.31998
O         13.31239        32.12770         2.57903
H         13.00058        31.33283         3.07441
O         22.96153        41.75503         2.33009
H         22.84553        42.67339         2.65607
O         14.64060        29.28088         2.62627
H         15.34727        29.90793         2.92649
O         20.92415        46.15711        -2.03131
H         21.71559        45.61599        -2.26520
O         26.53992        11.12598         0.43178
H         25.87739        10.59329         0.93563
H          5.00448        31.09798        -0.96069
H          4.99904        33.56386        -1.06384
H          7.39842        26.83534        -0.37371
H          6.20341        28.97449        -0.62726
H          6.21320        35.72587        -0.84050
H          7.45615        37.90725        -0.80436
H          9.79462        22.50737         0.35280
H          8.60401        24.66167        -0.12042
H          8.66653        40.07367        -0.71567
H          9.87390        42.21068        -0.53150
H         12.44146        18.16575         0.48570
H         11.13491        20.27811         0.46068
H         11.03044        44.32834        -0.37584
H         13.01080        46.02932         1.21446
H         14.98751        13.82256         0.62453
H         13.67442        16.04479         0.58118
H         13.59430        48.74447        -0.24186
H         14.86016        50.88211        -0.51203
H         17.47731         9.76357         0.29546
H         16.32936        11.72945         0.50987
H         16.11341        52.96616        -0.83660
H         17.34664        55.07797        -1.09155
H         19.35476         6.17947        -2.14939
H         18.48139         7.91549        -0.69056
H         18.57602        57.24834        -1.25448
H         19.88188        59.43975        -1.37406
H         22.07196         3.77284        -5.32977
H         20.19650         4.63649        -3.93032
H         23.33185        62.61228        -2.21250
H         21.13780        61.46497        -1.98890
H         24.38940         4.53134        -4.97256
H         25.68476         6.60014        -4.52688
H         26.65809        59.16959        -1.77065
H         25.46088        61.32290        -2.08109
H         27.19430         8.43823        -3.85456
H         28.73547        10.26968        -3.05438
H         28.19416        53.88740        -2.62558
H         27.90211        56.98880        -1.84349
H         30.15278        12.16554        -2.28670
H         31.43037        14.43439        -2.04970
H         31.48472        50.62851        -1.31607
H         30.36674        52.78280        -1.17527
H         32.61251        16.55179        -1.91359
H         33.89601        18.63117        -1.53873
H         33.81322        46.13033        -1.42972
H         32.63182        48.41106        -1.46240
H         35.19261        20.66892        -1.08057
H         36.47846        22.71330        -0.67361
H         36.49690        42.19534        -0.24896
H         35.14436        44.13577        -0.86510
H         37.73591        24.82049        -0.48436
H         39.08383        27.04429        -0.18654
H         39.03901        38.01222         0.24869
H         37.78739        40.12942         0.15793
H         40.33999        29.15414         0.12205
H         41.56321        31.30216         0.18438
H         41.55267        33.76113         0.36926
H         40.31319        35.86887         0.44556
