         261
 CSIRO Nanostructure Databank - Neutral Graphene Oxide Data Set
C        -10.85436         0.96968         0.22478
C        -10.17853         1.55462        -1.01198
C         -8.85474         0.79935        -1.24457
C         -7.51241         1.47361        -1.27662
C         -6.35229         0.66669        -0.73982
C         -5.12190         1.37356        -0.24700
C         -3.82787         0.62162        -0.12661
C         -2.54340         1.34777         0.02840
C         -1.28887         0.69558        -0.47884
C         -0.01382         1.41630        -0.22512
C          1.22385         0.58441        -0.24250
C          2.49642         1.30251         0.01235
C          3.76633         0.66552        -0.44906
C          4.98216         1.42976        -0.03894
C          6.24687         0.71834         0.23368
C          7.52248         1.51441         0.26148
C          8.82826         0.80753         0.45674
C         10.15911         1.57527         0.30448
C         11.27385         0.68410        -0.21056
C        -10.12427         3.09857        -0.93176
C         -9.23315         3.99290        -0.51190
C         -7.26707         2.96756        -1.42594
C         -6.34247         3.68520        -0.48645
C         -5.09243         2.90192        -0.15658
C         -3.77210         3.62767        -0.29387
C         -2.51104         2.85101        -0.10015
C         -1.31205         3.49172         0.56453
C         -0.03920         2.70121         0.59590
C          1.25081         3.43881         0.84335
C          2.51759         2.76334         0.41764
C          3.63726         3.56214        -0.18623
C          4.93148         2.86792        -0.46233
C          6.22303         3.58538        -0.73550
C          7.49780         2.88326        -0.37664
C          8.74535         3.68348        -0.24647
C         10.01215         2.89050        -0.52062
C         -8.73083         5.16772        -0.12084
C         -7.60043         5.96680        -0.82783
C         -6.31232         5.20325        -0.45226
C         -5.01777         5.90511        -0.22082
C         -3.66413         5.18397        -0.30693
C         -2.67340         5.71102         0.75154
C         -1.39913         4.94489         1.01076
C         -0.10539         5.65356         1.51846
C          1.23188         4.95942         1.04189
C          2.46467         5.72414         0.60432
C          3.57683         5.06637        -0.19018
C          4.81355         5.81307        -0.61562
C          6.23368         5.13753        -0.98055
C          7.39858         5.79411        -0.19633
C          8.65867         5.03488        -0.12206
C         -7.46220         7.42265        -0.39973
C         -6.28329         8.09410        -0.34488
C         -4.91760         7.41873        -0.46914
C         -3.93734         7.99293         0.56988
C         -2.69267         7.21482         0.95483
C         -1.39322         7.95082         1.12604
C         -0.08679         7.19650         1.21640
C          1.15522         7.93496         0.81794
C          2.46531         7.22774         0.60000
C          3.66297         7.98253         0.14567
C          4.89520         7.29545        -0.38414
C          6.18391         7.98210        -0.06394
C          7.37606         7.12066         0.12799
C         -6.18590         9.55711        -0.29492
C         -5.05138        10.20754         0.05860
C         -3.93032         9.47930         0.71685
C         -2.63121        10.20926         1.09779
C         -1.35484         9.40835         0.81329
C         -0.22921        10.02555         0.39568
C          1.06452         9.31086         0.05144
C          2.33048         9.99627         0.45418
C          3.61443         9.51709        -0.14515
C          4.90162        10.05758         0.47341
C          6.04472         9.34340         0.53184
C        -10.78906        -0.32695         0.58056
C         -9.98513        -1.33858        -0.15142
C         -8.90139        -0.71782        -1.05868
C         -7.63703        -1.52826        -1.21370
C         -6.33477        -0.80348        -1.06750
C         -5.13587        -1.57590        -0.62428
C         -3.84906        -0.87032        -0.36419
C         -2.60383        -1.52269        -0.92062
C         -1.32327        -0.74391        -0.95630
C         -0.02366        -1.50651        -1.13920
C          1.26103        -0.78520        -0.88924
C          2.48302        -1.55790        -0.44025
C          3.78768        -0.81941        -0.55451
C          5.02956        -1.52118        -0.09632
C          6.31509        -0.73095        -0.15142
C          7.61704        -1.44266        -0.05206
C          8.83212        -0.71572         0.47086
C         10.12353        -1.46123         0.32590
C         11.30108        -0.65551        -0.08211
C         -9.69585        -2.65652         0.36128
C         -8.97839        -3.70486        -0.46695
C         -7.69176        -3.06558        -1.08109
C         -6.37975        -3.82208        -1.14267
C         -5.10762        -3.06946        -0.87101
C         -3.81719        -3.81427        -1.02006
C         -2.58395        -3.00894        -1.30243
C         -1.28946        -3.72124        -1.59864
C         -0.05122        -3.02437        -1.07230
C          1.21385        -3.79658        -0.78255
C          2.47040        -3.05145        -0.34309
C          3.73820        -3.87230         0.00153
C          5.02377        -3.00240         0.12578
C          6.35843        -3.70892         0.25773
C          7.61850        -2.97296        -0.24498
C          8.92858        -3.66526         0.07362
C         10.08875        -2.93683         0.10644
C         -8.63704        -4.90362         0.42164
C         -7.87962        -5.99183         0.10437
C         -6.09055        -5.32677        -1.16485
C         -4.94662        -5.92990        -0.37298
C         -3.94389        -5.30435        -1.33860
C         -2.58723        -6.01384        -1.50529
C         -1.29068        -5.23420        -1.61990
C          0.04493        -5.97777        -1.41921
C          1.35577        -5.19890        -1.33917
C          2.68746        -5.92215        -1.25727
C          3.93496        -5.15142        -0.80479
C          5.22429        -5.86874        -0.52942
C          6.40290        -5.18775         0.12777
C          7.74003        -5.85272         0.02816
C          8.89128        -5.12475         0.05920
C         -7.55081        -6.99693         1.11872
C         -6.58598        -7.96026         0.97043
C         -4.90643        -7.35029        -0.41495
C         -3.71839        -8.03790        -0.51417
C         -2.45905        -7.30702        -0.68522
C         -1.16579        -7.90044        -0.19058
C          0.06579        -7.38134        -0.88729
C          1.36239        -8.16775        -0.95492
C          2.68844        -7.43561        -1.07018
C          3.92568        -8.12176        -0.54409
C          5.25409        -7.36675        -0.57513
C          6.50087        -8.08578        -0.17430
C          7.76362        -7.34849         0.27407
C         -5.96918        -8.74613         2.03467
C         -4.73324        -9.33529         2.10260
C         -3.57328        -9.39677         1.19892
C         -2.28301        -9.32900         1.61738
C         -1.08069        -9.23847         0.65942
C          0.18904        -9.19296         1.52491
C          1.42551        -9.53409         1.19850
C          2.65625        -9.96300         0.97038
C          3.89222        -9.12135         0.64164
C          5.13206        -9.99918         0.59151
C          6.33547        -9.49931         0.27685
O         -5.10030        -5.44204        -2.34102
O          2.31707         5.27667         1.97145
O         -0.00330        -7.09287        -2.33878
O         -6.06497         3.23409         0.86337
O          3.72580         5.57253        -1.54694
O         -5.85272         5.60909         0.89490
O         -2.50935         4.98917         1.97728
O         -7.19876        -3.58320        -2.33929
O          7.67022        -3.23486        -1.62764
O         -4.64617        -1.38725         0.73881
O          4.96148        -5.18042        -1.81217
O          3.48784         7.70972         1.55702
O          8.10702         1.40570         1.58793
O         -4.41881         7.65190        -1.75338
O         -6.05074        -8.13787        -0.30578
O         -4.51313         8.60577         1.75349
O         -0.65899         1.53951        -1.51225
O          6.46420         5.41254        -2.29386
O          5.36819         1.11633         1.33196
O         -3.74637        -9.41410        -0.22810
O          3.51378        -8.33961        -1.89649
O         -6.14455         0.85461         0.67970
O          3.83584         0.01379        -1.74680
O          0.18465        -3.64305         0.24167
O         -2.97376         3.16591        -1.43557
O          0.79540        -0.96862        -2.23434
O          3.93423         3.03629        -1.51296
O          5.60608         7.97124        -1.44492
O          4.84732        -2.07185         1.24569
O         -1.82292        -6.88182         0.61865
O          1.84986         0.51222         1.06310
O         -6.82526        -1.14737        -2.37426
O          6.98528         2.84928        -1.74837
O          2.20616        -2.20180         0.82398
O         -2.21151        -0.77015        -2.11401
O          6.32201        -4.54255         1.45786
O         -0.94115         2.64969         1.71898
O         -7.47911         3.44830        -2.53761
O         -7.27786        -6.09522        -1.18997
O         -8.16382         1.02237        -2.50026
O          2.18820        -5.36149        -2.51168
O         -2.06549        -3.15493        -2.66256
O          7.15815        -0.84435        -1.32114
O          0.76451         7.91854         2.19156
O          2.17831         2.86908         1.81767
O          6.17327        -7.89965        -1.58380
O         -2.23533         7.61686         2.26856
O         -3.17426         0.82096         1.19969
O         -4.40049        -3.64716         0.29495
O         -1.97222        -5.82278        -2.77867
O          9.50138        -1.20195         1.66414
O          1.28902        -9.34194        -1.25471
O        -10.06862        -1.29519        -1.63282
O         -0.13165         5.51362         2.92640
H          0.65760         5.96899         3.29283
O        -11.02305         1.24454        -2.13245
H        -10.47157         1.25446        -2.94387
O         -7.80983         6.04630        -2.23115
H         -7.83399         5.14005        -2.62317
O          7.93203        -7.54817         1.69123
H          7.40510        -6.87183         2.16678
O         -9.81626        -4.11066        -1.55904
H         -9.23344        -4.36655        -2.30803
O          3.60784         9.71647        -1.56739
H          4.41137         9.26127        -1.93239
O         -3.05787         5.52916        -1.55766
H         -3.50607         6.34613        -1.94440
O          3.48243        -4.39008         1.32274
H          3.42955        -3.61341         1.92742
O         -1.04948       -10.36712        -0.19435
H         -1.92683       -10.45726        -0.62570
O          9.97956         2.53526        -1.91015
H          9.16692         2.89237        -2.32941
O         -2.57177        11.46829         0.43367
H         -2.59863        11.31773        -0.53372
O         10.57137         1.99624         1.62341
H         10.37955         1.26789         2.25189
O          4.06457        -8.19850         1.76207
H          4.16248        -8.72481         2.58338
O          1.03562         8.96324        -1.33641
H          1.86843         9.27909        -1.77169
H         12.19353        -1.21180        -0.40904
H         12.17280         1.19930        -0.58170
H         10.91643         3.52713        -0.31979
H          9.58332         5.62534        -0.01211
H          8.27017         7.58567         0.57309
H          6.93666         9.78659         1.00067
H          4.88068        11.07408         0.89433
H          2.36788        10.36617         1.49276
H         -0.27028        11.10667         0.18837
H         -2.65432        10.41970         2.19785
H         -5.00030        11.30550         0.01298
H         -7.05735        10.13529        -0.63968
H         -8.39935         7.99979        -0.33845
H         -8.95638         5.49179         0.91301
H        -11.04403         3.53268        -1.37448
H        -11.48064         1.64828         0.82274
H        -11.32741        -0.67298         1.47604
H         -9.99392        -2.89621         1.39341
H         -9.08610        -4.90034         1.42726
H         -8.01062        -6.85147         2.10704
H         -6.55507        -8.78275         2.96812
H         -4.49203        -9.75682         3.09408
H         -2.08119        -9.30842         2.69930
H          0.02618        -8.84463         2.56300
H          2.85411       -11.03542         1.15592
H          5.03422       -11.05624         0.88482
H          7.23083       -10.13863         0.30259
H          8.64852        -7.81460        -0.22931
H          9.85639        -5.65374         0.11053
H         11.05147        -3.46828         0.18777
