         661
 CSIRO Nanostructure Databank - Neutral Graphene Oxide Data Set
C          5.73334        31.67644        -0.14888
C          5.75463        33.04139        -0.12599
C          8.19371        27.37149        -0.52566
C          8.18027        28.75807        -0.46152
C          6.96320        29.52199        -0.31626
C          8.20733        31.63822         0.04263
C          6.94554        30.88976        -0.13016
C          8.21889        33.10124        -0.10460
C          6.99184        33.80610        -0.10801
C          8.23033        35.93161         0.02600
C          7.00504        35.21020        -0.07548
C          8.25080        37.33809         0.11554
C         10.72289        23.15397        -0.64260
C         10.70441        24.52036        -0.72497
C          9.47453        25.26912        -0.57419
C         10.62592        27.40398        -1.20759
C          9.41692        26.63483        -0.71094
C         10.64351        28.81031        -0.65851
C          9.46470        29.45696        -0.44554
C         10.66226        31.66903        -0.69940
C          9.50110        30.89911        -0.10508
C         10.69464        33.10897        -0.28844
C          9.46598        33.79842        -0.11385
C         10.71940        35.91083         0.16923
C          9.47381        35.21614         0.01127
C         10.68739        37.31321         0.41045
C          9.46404        38.06019         0.30255
C         10.63828        40.27721         0.54138
C          9.43745        39.47375         0.33493
C         10.70781        41.72203         0.26414
C         13.29041        18.91659         0.05923
C         13.22307        20.26915        -0.39147
C         12.01526        20.97684        -0.37973
C         13.22324        23.14727        -0.39262
C         11.98901        22.37739        -0.90904
C         13.17229        24.55634        -0.92439
C         11.95948        25.26019        -0.95918
C         13.14878        27.42403        -1.08471
C         11.94092        26.67322        -1.07503
C         13.16729        28.79574        -0.76802
C         11.93499        29.48259        -0.26201
C         13.16862        31.68192        -0.60651
C         11.96511        30.96863        -0.49981
C         13.15764        33.11053        -0.56267
C         11.93146        33.80458        -0.27354
C         13.27714        35.76396         0.50251
C         11.94721        35.19119         0.05072
C         13.25475        37.28941         0.67447
C         11.94132        38.01574         0.72395
C         13.20913        40.19711         0.31601
C         11.93680        39.52003         0.70966
C         13.19961        41.68877         0.21123
C         11.90617        42.42660         0.31908
C         13.19117        44.53922         0.39967
C         11.96015        43.84196         0.30658
C         13.23824        45.95709         0.36022
C         15.93443        14.99182         1.44167
C         15.95676        16.49141         1.35220
C         14.62834        17.06520         0.96223
C         15.72363        18.77870        -0.45433
C         14.51890        18.22113         0.21098
C         15.67066        20.20973        -0.97430
C         14.43601        20.96987        -0.76509
C         15.64854        23.06366        -1.13022
C         14.48242        22.38626        -0.78947
C         15.69838        24.54228        -0.85785
C         14.40991        25.20188        -1.31535
C         15.69701        27.38895        -1.06466
C         14.42184        26.74386        -1.38821
C         15.64902        28.77486        -0.65010
C         14.38291        29.53921        -0.74989
C         15.65974        31.61118        -1.23044
C         14.40848        30.93555        -0.70879
C         15.64780        33.14919        -1.19647
C         14.32890        33.94199        -1.03594
C         15.65517        35.95963        -0.22549
C         14.48492        35.24937        -0.25579
C         15.71032        37.36673         0.19185
C         14.50449        38.06558         0.43538
C         15.70059        40.22443         0.40790
C         14.49276        39.47242         0.46711
C         15.69315        41.67221         0.51953
C         14.47205        42.40237         0.45767
C         15.64094        44.54984         0.87740
C         14.41866        43.79893         0.56582
C         15.66818        45.97170         0.53552
C         14.47129        46.66126         0.33494
C         15.69678        48.80190         0.19369
C         14.53348        48.11088         0.09991
C         15.77956        50.30207        -0.01647
C         18.43603        10.77634         2.14388
C         18.40479        12.12701         1.66944
C         17.18711        12.87092         1.68724
C         18.34952        14.94555         1.00568
C         17.11845        14.25753         1.37211
C         18.33410        16.25942         0.56251
C         17.11455        17.00638         0.52288
C         18.24131        18.89142        -0.65186
C         17.05343        18.20893        -0.17379
C         18.17959        20.26974        -1.10917
C         16.94879        20.91706        -1.17288
C         18.14245        23.08176        -1.85072
C         16.85382        22.32725        -1.55955
C         18.09518        24.58376        -1.82959
C         16.91728        25.28117        -1.34278
C         18.19700        27.41075        -1.11686
C         16.92770        26.68863        -1.19367
C         18.20760        28.80214        -0.84521
C         16.97249        29.54036        -0.56394
C         18.18504        31.67825        -0.76046
C         16.95757        30.99375        -0.73908
C         18.20685        33.10556        -0.78364
C         16.94986        33.86433        -0.99841
C         18.21984        36.02176        -0.38925
C         16.91887        35.34608        -0.72091
C         18.21004        37.41315         0.12841
C         16.92544        38.10854         0.18785
C         18.23492        40.25194         0.21928
C         16.92037        39.51180         0.32310
C         18.15765        41.68381         0.68053
C         16.95163        42.35210         0.74648
C         18.21181        44.58102         0.86884
C         16.94352        43.80837         1.05563
C         18.21241        45.88189         0.48274
C         16.95156        46.62624         0.09224
C         18.23588        48.84641         0.20312
C         16.97487        48.07958         0.58362
C         18.26057        50.18750         0.41189
C         16.97488        50.92664         0.73681
C         18.26696        53.09166         0.29824
C         17.07196        52.40871         0.46299
C         18.29907        54.52581         0.15801
C         21.19272         7.30684         4.26021
C         21.04660         8.34189         3.32588
C         19.78252         8.93794         3.09779
C         20.82975        10.53973         1.53586
C         19.63799        10.06377         2.26250
C         20.83720        12.00130         1.07268
C         19.62330        12.77218         1.33722
C         20.91110        14.89698         0.82929
C         19.62759        14.22833         1.18757
C         20.82578        16.13710        -0.00367
C         19.51858        16.84076        -0.11878
C         20.69583        18.95011        -0.84493
C         19.49190        18.26733        -0.52559
C         20.67318        20.29578        -1.24239
C         19.42207        20.99854        -1.36428
C         20.66287        23.13456        -1.69252
C         19.42256        22.38233        -1.63878
C         20.69215        24.56162        -1.70757
C         19.44194        25.34246        -1.79487
C         20.67951        27.34936        -1.06531
C         19.43257        26.72088        -1.30485
C         20.66351        28.74914        -0.61664
C         19.42173        29.52770        -0.73143
C         20.68807        31.64778        -0.61467
C         19.43018        30.93265        -0.62527
C         20.67299        33.08042        -0.53443
C         19.42812        33.80288        -0.53390
C         20.62633        35.79951         0.29954
C         19.41362        35.18363        -0.22792
C         20.63061        37.29609         0.56423
C         19.37211        38.05750         0.44243
C         20.66918        40.24468         0.74736
C         19.35603        39.49567         0.94599
C         20.70279        41.60872         0.83036
C         19.42928        42.34640         1.07677
C         20.80293        44.59824         1.16625
C         19.46890        43.85146         1.17761
C         20.77429        45.92738         0.43206
C         19.48347        46.58172         0.15521
C         20.78044        48.83164        -0.29310
C         19.46922        48.07200        -0.11132
C         20.78859        50.22028         0.28173
C         19.54163        50.92809         0.71531
C         20.73959        53.06446         0.20159
C         19.53105        52.38686         0.33790
C         20.78219        54.50807        -0.25500
C         19.48980        55.24171         0.00713
C         20.74622        57.38720         0.01250
C         19.52524        56.64280        -0.04837
C         20.76572        58.73899        -0.29858
C         23.88253         5.50188         6.15048
C         22.61898         5.92079         5.74021
C         23.63975         7.24515         3.95742
C         22.47919         6.80747         4.64193
C         23.49677         8.03337         2.68276
C         22.22470         8.84501         2.62116
C         23.29913        10.37678         0.90639
C         22.13692         9.90781         1.77031
C         23.32068        11.90406         0.73107
C         22.16608        12.63667         0.86773
C         23.37260        14.76072         0.10170
C         22.19608        14.11666         0.75925
C         23.22351        16.11155        -0.51053
C         22.07820        16.82934        -0.38437
C         23.06143        18.78127        -1.65386
C         22.06004        18.32748        -0.59186
C         23.09900        20.28401        -1.71576
C         21.92219        20.98709        -1.57413
C         23.10729        23.14488        -1.92996
C         21.89663        22.43321        -1.73170
C         23.14900        24.55389        -1.80326
C         21.91634        25.27022        -1.62240
C         23.14528        27.43663        -1.34103
C         21.90986        26.69334        -1.33303
C         23.19223        28.80048        -1.08196
C         21.99050        29.52146        -0.62120
C         23.15386        31.71732        -1.14763
C         21.91320        30.97265        -0.73099
C         23.18542        33.13411        -0.63988
C         21.91611        33.80219        -0.43607
C         23.10659        35.92716        -0.03454
C         21.89066        35.12641        -0.00158
C         23.07509        37.32593         0.43586
C         21.90555        38.02573         0.49917
C         23.16260        40.23350         0.42297
C         21.86325        39.51016         0.20111
C         23.19362        41.62572         0.46826
C         21.94669        42.36540         0.65402
C         23.23172        44.45897         0.56456
C         21.98647        43.74574         0.73980
C         23.21726        45.84099         0.37417
C         21.97848        46.59344         0.24951
C         23.21080        48.74500         0.19012
C         22.02966        48.04246         0.07023
C         23.25015        50.19911         0.18302
C         21.98342        50.92755         0.21835
C         23.21381        53.09527         0.02212
C         21.96545        52.35732         0.25389
C         23.20599        54.55682         0.28108
C         22.02235        55.24934         0.23181
C         23.16265        57.42087         0.58876
C         21.99816        56.70037         0.34906
C         23.15949        58.89651         0.62312
C         21.91834        59.57832         0.02090
C         23.37466        61.44373        -0.75084
C         22.10634        60.87228        -0.63339
C         25.02787         5.96532         5.50051
C         26.09459         7.38439         3.76108
C         24.91843         6.84348         4.39613
C         26.02068         8.37043         2.79398
C         24.72133         8.84109         2.31052
C         25.85738        10.36649         0.68768
C         24.63266         9.86415         1.41725
C         25.76917        11.82645         0.29676
C         24.58125        12.53491         0.29942
C         25.71932        14.57475        -0.54974
C         24.57475        13.92989        -0.15578
C         25.70488        15.96146        -1.08757
C         24.40237        16.70855        -1.17714
C         25.61840        18.78393        -1.77180
C         24.41907        18.14872        -1.45246
C         25.63752        20.20468        -2.00173
C         24.32080        20.88182        -2.36719
C         25.65542        23.13015        -2.04303
C         24.34201        22.40621        -2.27503
C         25.61844        24.57636        -1.73495
C         24.41446        25.26280        -1.77295
C         25.67395        27.48568        -1.69471
C         24.34818        26.77062        -1.97893
C         25.67009        28.86837        -1.18060
C         24.43197        29.56011        -1.08145
C         25.64127        31.64326        -0.60462
C         24.42740        30.95286        -0.87685
C         25.65543        33.06508        -0.41010
C         24.40241        33.78545        -0.47838
C         25.71989        36.02503        -0.19773
C         24.41243        35.25980        -0.38094
C         25.60284        37.14482         0.84837
C         24.34658        37.98752         0.76786
C         25.70640        40.12743         0.55946
C         24.39709        39.48309         0.70659
C         25.69955        41.53680         0.03952
C         24.45002        42.31558         0.41878
C         25.72311        44.42528         0.40645
C         24.48505        43.72294         0.45129
C         25.75348        45.83636         0.42918
C         24.49133        46.52640         0.12754
C         25.75389        48.70220         0.51073
C         24.50935        48.04018         0.11764
C         25.67783        50.15410         0.75033
C         24.45464        50.86591         0.30200
C         25.79712        53.07687         0.30848
C         24.50929        52.32191         0.08180
C         25.78838        54.57041         0.38029
C         24.47021        55.23449         0.62610
C         25.73757        57.46192         0.62429
C         24.45054        56.73118         0.80741
C         25.71419        58.83067         0.49400
C         24.48513        59.67423         0.70343
C         24.51488        60.87519        -0.20720
C         27.20674         9.01752         2.31440
C         28.35476        10.71379         0.99472
C         27.16431        10.03022         1.37691
C         28.33492        11.87534         0.22880
C         27.02218        12.41424        -0.21624
C         28.23645        14.66299        -0.49570
C         26.99224        13.85208        -0.66993
C         28.19979        16.14235        -0.71821
C         26.93664        16.76459        -1.18732
C         28.12186        18.73957        -2.15250
C         26.88103        18.06063        -1.62973
C         28.14464        20.23316        -1.85659
C         26.85582        20.93566        -1.89837
C         28.07310        22.99320        -1.16553
C         26.85162        22.33562        -1.76109
C         28.04123        24.50573        -1.25206
C         26.90360        25.22329        -1.51091
C         28.14409        27.39960        -1.00581
C         26.95596        26.70647        -1.54023
C         28.11646        28.77863        -0.75932
C         26.87317        29.51421        -0.82901
C         28.05444        31.55746        -0.06442
C         26.85749        30.90265        -0.49459
C         28.03343        32.94543         0.20338
C         26.86755        33.72169        -0.04836
C         28.06159        35.82784         0.55268
C         26.91140        35.15826         0.17394
C         28.05658        37.25838         0.80560
C         26.87658        37.96789         0.83294
C         28.16536        40.10961         0.67304
C         26.87591        39.41719         0.73625
C         28.16971        41.55663         0.51171
C         26.99237        42.24552         0.33247
C         28.23673        44.39423         0.58260
C         27.00633        43.71683         0.05679
C         28.09464        45.75661         1.20044
C         26.94931        46.56529         0.61702
C         28.25415        48.76093         0.73092
C         26.93986        47.99308         0.68655
C         28.23595        50.16460         1.39973
C         26.91565        50.90075         1.13098
C         28.28314        53.15397         0.94832
C         26.96088        52.39544         0.96088
C         28.24798        54.60690         0.67364
C         27.04470        55.32004         0.69156
C         26.96859        56.73064         0.64053
C         29.52464        12.58888        -0.09268
C         30.69312        14.64457        -0.85174
C         29.52892        13.93191        -0.50024
C         30.70849        16.02918        -1.13109
C         29.50597        16.92395        -0.82984
C         30.65995        18.75814        -2.22442
C         29.40842        18.07437        -1.78491
C         30.62547        20.24777        -1.90546
C         29.34393        20.91463        -1.84251
C         30.62644        23.05517        -1.43251
C         29.32677        22.43226        -1.88047
C         30.62554        24.45721        -0.98800
C         29.30234        25.19602        -0.89560
C         30.58339        27.32646        -0.76327
C         29.35509        26.66340        -0.88209
C         30.58587        28.74331        -0.46528
C         29.31829        29.44606        -0.33129
C         30.48843        31.42162         0.58846
C         29.26979        30.79125         0.06081
C         30.53712        32.89356         0.85120
C         29.25618        33.63403         0.69846
C         30.55938        35.76875         1.12153
C         29.38289        35.10763         0.37827
C         30.60220        37.27122         0.78802
C         29.30942        37.97252         1.25141
C         30.62353        40.11010         0.93413
C         29.34437        39.42781         0.85856
C         30.63303        41.55835         0.78944
C         29.44416        42.25633         0.59537
C         30.67670        44.43968         0.85142
C         29.42109        43.71079         0.68199
C         30.69449        45.78543         1.10682
C         29.41987        46.50916         1.36141
C         30.76437        48.78315         1.33836
C         29.43954        48.00323         1.32254
C         30.63823        50.16016         0.72669
C         29.47884        50.92019         0.93188
C         29.47202        52.31676         0.77793
C         31.89327        16.67796        -1.48823
C         33.10219        18.79892        -1.73807
C         31.92593        18.07157        -1.76999
C         33.10018        20.23476        -1.76640
C         31.82420        20.93940        -1.79135
C         33.08157        23.08529        -1.40891
C         31.82849        22.38051        -1.55458
C         33.10566        24.50912        -1.28848
C         31.86684        25.24266        -1.11835
C         33.06500        27.41353        -1.18697
C         31.82780        26.62558        -0.96779
C         33.11152        28.90109        -0.81366
C         31.78616        29.42152        -0.32495
C         33.07081        31.48421         0.41337
C         31.80319        30.73788         0.29340
C         33.13384        32.85073         0.76751
C         31.84134        33.62071         0.46154
C         33.06341        35.71098         1.21304
C         31.90027        35.07342         0.91528
C         33.07378        37.18929         1.51511
C         31.79008        37.96342         1.41532
C         33.07890        40.15301         1.53223
C         31.79572        39.43021         1.21474
C         33.08233        41.57672         1.02518
C         31.90617        42.25057         0.81041
C         33.19317        44.42889         0.72617
C         31.91541        43.70362         0.38749
C         33.16914        45.81125         0.83665
C         31.93577        46.55904         0.95546
C         31.93878        47.93502         0.92251
C         34.28622        20.94089        -1.61888
C         35.53664        23.05241        -1.33359
C         34.31625        22.36777        -1.46793
C         35.58234        24.46446        -1.19737
C         34.34233        25.18254        -1.22362
C         35.65672        27.36036        -0.95567
C         34.36830        26.65126        -1.27920
C         35.58420        28.68659        -0.27035
C         34.21910        29.15382         0.26645
C         35.52642        31.31339         0.99709
C         34.23488        30.62487         0.69162
C         35.61010        32.79615         0.52573
C         34.34267        33.52642         0.93396
C         35.62758        35.72547         1.19306
C         34.35549        34.92244         1.52547
C         35.57691        37.22848         1.06507
C         34.31078        37.97452         1.25689
C         35.50727        40.05910         0.71937
C         34.30036        39.34147         1.12502
C         35.52419        41.47539         0.70219
C         34.35844        42.25661         0.85305
C         34.38707        43.66532         0.77417
C         36.81393        25.14844        -1.01916
C         38.05433        27.14295        -0.31362
C         36.89675        26.55223        -0.78079
C         38.16790        28.54225         0.24512
C         36.79665        29.21340         0.40076
C         38.47085        31.62360         0.44729
C         36.72059        30.42740         0.98025
C         38.12313        32.92843         0.21511
C         36.92970        33.55778         0.92557
C         37.71197        35.72799        -0.17352
C         36.76602        35.02118         0.57031
C         37.66011        37.15782        -0.27547
C         36.65592        37.91411         0.31731
C         36.61597        39.32861         0.25500
C         39.08684        29.43641        -0.59782
C         40.01667        31.56622        -1.44380
C         39.22904        30.80336        -0.48661
C         39.87412        32.91591        -1.54859
C         38.89207        33.65337        -0.77590
C         38.73943        35.01816        -0.90119
O         31.91617        33.52058        -0.93745
O         25.07919        22.93464        -3.41702
O         32.28730        37.53632         2.73699
O         21.40982        28.98728         0.62101
O         20.59803        10.87364         0.12748
O         18.68811        25.15760        -3.03711
O         24.90980        15.94324        -2.33624
O         33.68784        27.16298        -2.48728
O         24.44765        55.83080         1.97008
O         24.58799        47.26821        -1.14020
O         17.63387        36.05506        -1.77710
O         27.44777        52.96168         2.18922
O         35.79166        28.60364        -1.72147
O         20.56086        36.34341         1.69896
O         19.35469        47.12690        -1.22523
O          9.05406        31.23668         1.22050
O         28.05436        15.58305         0.64968
O         25.95161        50.55039         2.18903
O         14.43383        25.89030        -2.57865
O         16.38040        33.63560        -2.37144
O         20.45831        15.00463         2.21040
O         19.99171        15.93834        -1.20733
O         15.51561        19.04465        -1.87242
O         37.88346        30.97330         1.55436
O         23.20094        14.79656         1.58635
O         26.05118        53.88087        -0.89026
O         34.65277        30.92128         2.09413
O         13.17923        40.84237        -1.01091
O         24.22487        38.76212         2.01978
O         22.17739        59.50428         1.50009
O         31.15563        30.67106         1.64978
O         29.93462        24.62481         0.32693
O         17.31801        22.56388        -2.94519
O         29.29117        47.32084         2.59542
O         12.63192        37.58866         1.97667
O         27.01914        12.78596        -1.65015
O         16.28892        29.04655         0.66041
O         23.90286        52.68575        -1.21458
O         26.57676        27.30013        -2.84533
O         16.19410        44.21122         2.23558
O         36.03847        36.58711         2.32688
O         23.64241        35.88912        -1.46119
O         11.31263        40.04535         1.89449
O         19.34795        43.02412         2.38494
O         29.75405        33.24978         2.02216
O         19.03701        39.46544         2.35018
H         19.67768        38.87993         2.80540
O         29.25733        38.00728         2.70226
H         29.27596        37.06890         3.01559
O         20.90320        54.46512        -1.71348
H         21.66241        53.88260        -1.93450
O         23.08980         9.79762        -0.42112
H         22.18176        10.07915        -0.69847
O         24.59401        60.21149         2.06152
H         23.67129        60.34367         2.38325
O         35.65486        32.72022        -0.92193
H         34.73744        32.64504        -1.26657
O         10.38956        31.63995        -2.15784
H         11.14188        32.08393        -2.60630
O         13.93441        34.37689        -2.37437
H         14.77371        34.49867        -2.88229
O         37.08808        33.46101         2.34912
H         36.28749        33.83922         2.78234
O         23.06298        31.83336        -2.62003
H         23.80068        32.40713        -2.91857
O         23.36841         7.03278         1.61378
H         23.34908         7.52004         0.76070
O         19.54844        50.92085         2.22285
H         20.34731        51.41732         2.50666
O         15.92465        50.56917        -1.42099
H         16.80792        50.25386        -1.70665
O         31.05121        49.13681         2.73277
H         30.19301        49.42250         3.13366
O         27.63224        45.42525         2.55318
H         27.99512        46.12291         3.15034
O         29.77358        17.50941         0.48648
H         29.37555        16.89018         1.14432
O         33.91328        28.33626         1.40968
H         34.06312        28.87448         2.21950
O         18.65607        40.24929        -1.18909
H         17.90064        40.55004        -1.73794
O         17.00039        48.00592         2.02989
H         16.85520        48.92731         2.36940
O         21.07158        44.96979         2.55424
H         20.68123        44.25683         3.11323
O         28.11935        22.61499         0.23067
H         28.81962        23.17475         0.65335
O         15.64703        31.23177        -2.64989
H         16.16695        31.92562        -3.12382
O         28.36712        49.99731         2.82301
H         27.46174        50.05500         3.21136
O         25.62583        41.43042        -1.43255
H         25.86960        42.32172        -1.78571
O         28.57596        49.00201        -0.67005
H         28.27608        48.23538        -1.20305
O         20.90875        49.05952        -1.73839
H         20.62347        48.22322        -2.17610
O         11.98847        29.31841         1.21108
H         12.80658        29.75786         1.52914
O         25.88355         9.63759        -0.58133
H         24.97075         9.67864        -0.95439
O         22.59259        18.31174        -2.94022
H         23.12259        18.77410        -3.63067
O         30.29771        35.64585         2.53875
H         31.08680        36.00425         3.01347
O         24.15588        20.54992        -3.79239
H         24.66847        21.23107        -4.29110
O         16.86978        46.60584        -1.35949
H         16.11809        47.17838        -1.62512
O         30.70765        18.70626        -3.71255
H         31.55418        19.11774        -3.99135
O         26.07114        36.60853        -1.47222
H         25.23730        36.69016        -1.99468
O         10.43068        27.55012        -2.65931
H          9.58999        28.03680        -2.79598
O         24.09867        26.90789        -3.40781
H         24.97399        26.82592        -3.85401
O         21.62459        39.52824        -1.26433
H         20.66204        39.68792        -1.42004
O         13.45834        35.19291         1.83886
H         13.00393        35.81065         2.46269
O         33.42943        29.69257        -1.96925
H         33.94645        29.11109        -2.58091
O         34.35929        34.74541         2.97152
H         34.70688        35.58638         3.35498
O         13.15348        23.19977         1.04982
H         13.90925        23.75619         1.35051
O         22.54345        18.89239         0.66534
H         22.01111        18.52347         1.40116
O         15.64199        24.68387         0.62088
H         16.52838        24.48021         0.98789
O         33.13199        40.24299         2.99620
H         32.90922        39.34460         3.34095
O         29.67250        35.18356        -1.04797
H         28.90061        34.83879        -1.54450
O         30.78616        37.51157        -0.62048
H         30.39770        36.75413        -1.12832
O         38.77642        28.39167         1.54965
H         38.78777        29.28575         1.96505
O         31.85044        43.70343        -1.08339
H         31.14930        43.06939        -1.34484
O         27.07556        43.83456        -1.43597
H         27.93440        43.44890        -1.71502
O         12.17101        22.31090        -2.35632
H         11.43605        21.78647        -2.73651
O         27.97195        18.66508        -3.61686
H         28.87776        18.73224        -4.00716
O         25.53078        36.46485         2.12717
H         25.31560        37.14865         2.80084
O         16.23171        17.00166         2.72832
H         17.00262        16.50119         3.07329
O         29.17044        22.82517        -3.27868
H         29.89848        22.42072        -3.79546
O         16.72872        50.75714         2.17027
H         17.57452        51.00594         2.61701
H          4.77037        31.14641        -0.19886
H          4.80731        33.60033        -0.14045
H          7.26116        26.80937        -0.36204
H          6.00663        28.98474        -0.41119
H          6.05548        35.76542        -0.07453
H          7.30278        37.89467         0.06836
H          9.78172        22.60379        -0.48297
H          8.55814        24.70844        -0.33013
H          8.48883        39.98881         0.12638
H          9.76124        42.27594         0.16955
H         12.37162        18.45179         0.44725
H         11.09453        20.49203        -0.02022
H         11.02195        44.41470         0.26257
H         12.29807        46.51756         0.24935
H         14.99347        14.48986         1.71057
H         13.73033        16.64467         1.44010
H         13.59288        48.63923        -0.12135
H         14.82904        50.78918         0.31281
H         17.52252        10.36044         2.59436
H         16.26179        12.35158         1.97704
H         16.13006        52.97862         0.46656
H         17.35068        55.07867         0.24550
H         20.30198         6.93386         4.78779
H         18.90577         8.55613         3.64161
H         18.57819        57.20387        -0.07718
H         19.87786        59.20992        -0.74629
H         23.97969         4.81288         7.00110
H         21.72046         5.57205         6.26905
H         23.47333        62.37595        -1.32714
H         21.25574        61.31226        -1.17314
H         26.02373         5.64930         5.84254
H         27.08145         7.05547         4.12023
H         26.66532        59.37108         0.37018
H         25.48056        61.38720        -0.32605
H         28.17388         8.72850         2.75474
H         29.31465        10.35355         1.39694
H         29.20327        55.15295         0.66158
H         27.90527        57.30855         0.64235
H         30.49052        12.08345         0.06134
H         31.63797        14.08735        -0.95129
H         31.56815        50.68378         0.45134
H         30.39007        52.80675         0.41865
H         32.84358        16.12063        -1.46214
H         34.05132        18.28642        -1.51803
H         34.11736        46.36213         0.93799
H         32.89965        48.45399         0.77776
H         35.23815        20.39015        -1.58768
H         36.47821        22.48410        -1.34813
H         36.47164        41.98222         0.46307
H         35.35841        44.18352         0.79439
H         37.73621        24.55238        -0.94895
H         38.93758        26.50165        -0.16667
H         38.45457        37.66888        -0.83967
H         37.47065        39.86759        -0.18092
H         39.66098        28.94012        -1.39753
H         40.71181        31.02652        -2.10335
H         40.47448        33.47517        -2.28128
H         39.38876        35.58673        -1.58275
