         342
 CSIRO Nanostructure Databank - Neutral Graphene Oxide Data Set
C          1.68189         2.13604        -2.29842
C          1.67760         3.51574        -2.27196
C          2.79737         1.42158        -1.81659
C          2.78664         4.24140        -1.75268
C          1.75176         6.45973        -2.35043
C          1.64549         7.79449        -2.16564
C          2.77721         5.66956        -1.68767
C          2.45773         8.46426        -1.08607
C          1.31388        10.68643        -1.23739
C          1.29187        12.11037        -1.12705
C          2.48459         9.97818        -1.17656
C          2.42947        12.84259        -0.81883
C          1.35863        15.07976        -1.39132
C          1.47851        16.41191        -1.58307
C          2.33080        14.32572        -0.51178
C          2.61640        17.15375        -1.06719
C          2.69593        18.57722        -1.22667
C          3.90266         2.08984        -1.30769
C          3.91976         3.51498        -1.25649
C          5.04896         1.26462        -0.77981
C          5.06264         4.21686        -0.75131
C          3.85386         6.35316        -1.06508
C          3.80425         7.78230        -0.92837
C          5.03003         5.63772        -0.65864
C          4.92190         8.46978        -0.48704
C          3.73533        10.72373        -0.96210
C          3.67159        12.16894        -0.64486
C          4.96513         9.95560        -0.57041
C          4.85402        12.86154        -0.28178
C          3.67280        15.02417        -0.44683
C          3.69818        16.44596        -0.53122
C          4.85435        14.30554        -0.22249
C          4.86060        17.19570         0.07119
C          3.84432        19.27536        -0.93387
C          5.00950        18.61450        -0.42395
C          6.28568         2.05931        -0.44155
C          6.25101         3.49414        -0.36896
C          7.44976         1.37275        -0.17308
C          7.41068         4.19059         0.04778
C          6.16700         6.36423        -0.17923
C          6.11364         7.77473        -0.09908
C          7.38653         5.64301         0.15832
C          7.26692         8.53400         0.33188
C          5.97648        10.67541         0.29005
C          6.07180        12.14887        -0.03786
C          7.28556         9.92500         0.34688
C          7.29871        12.81686         0.06166
C          6.11330        15.00566        -0.02930
C          6.14973        16.41872         0.04393
C          7.32865        14.27376         0.04246
C          7.36471        17.11037         0.22194
C          6.21658        19.26443        -0.27005
C          7.41491        18.56949         0.11137
C          8.66260         2.05705         0.15848
C          8.62263         3.48659         0.30566
C          9.86808         1.37005         0.33237
C          9.82406         4.17808         0.64255
C          8.50851         6.32321         0.58579
C          8.45234         7.77977         0.77927
C          9.74214         5.61019         1.09751
C          9.75026         8.52685         0.97138
C          8.51083        10.66981         0.45898
C          8.50961        12.05911         0.23814
C          9.76015         9.97558         0.67910
C          9.79899        12.75917         0.09635
C          8.53916        14.98631         0.25203
C          8.56734        16.38235         0.37518
C          9.81660        14.25581         0.15422
C          9.82527        17.10434         0.81728
C          8.63278        19.23429         0.17956
C          9.86979        18.55767         0.41830
C         11.09967         2.07310         0.50485
C         11.05319         3.51790         0.65349
C         12.31040         1.39386         0.52011
C         12.29368         4.26619         0.75420
C         11.02988         6.37910         0.85774
C         11.02095         7.77015         0.87737
C         12.26740         5.67030         0.78361
C         12.25693         8.50825         0.99892
C         10.96713        10.65107         0.75762
C         11.05502        12.06804         0.47899
C         12.18878         9.95461         1.10753
C         12.24302        12.74592         0.55890
C         11.08189        14.89562         0.70472
C         11.11811        16.38264         0.52547
C         12.33335        14.19679         0.15402
C         12.33110        17.04590         0.53491
C         11.09017        19.20475         0.38325
C         12.34514        18.50698         0.53055
C         13.62584         2.09710         0.39724
C         13.55626         3.57906         0.71933
C         14.76918         1.37777         1.08281
C         14.75877         4.27362         0.83182
C         13.54041         6.43748         0.46861
C         13.48353         7.86361         0.94448
C         14.81816         5.71639         0.86276
C         14.70082         8.52565         1.44036
C         13.31179        10.67851         1.42098
C         13.41417        12.17374         1.29480
C         14.51966        10.01096         1.86446
C         14.77177        12.65969         0.69946
C         13.60960        14.88168         0.59163
C         13.59404        16.33081         0.59050
C         14.76943        14.17048         0.73347
C         14.80655        17.03272         0.72644
C         13.54991        19.17871         0.64183
C         14.80131        18.48269         0.76399
C         15.97923         2.01509         1.20976
C         16.00466         3.46679         0.88067
C         17.24040         1.35047         1.42147
C         17.28011         4.18955         1.03185
C         16.02844         6.42154         0.94993
C         16.03051         7.98018         0.90186
C         17.25632         5.67681         0.99891
C         17.30980         8.72002         1.40916
C         15.65881        10.90812         2.12728
C         15.95137        12.08637         1.50558
C         17.47071         9.81246         2.22600
C         17.26868        12.77369         1.53831
C         16.09870        14.84326         0.56212
C         16.05258        16.33200         0.81080
C         17.29644        14.13925         1.16686
C         17.25520        17.03062         0.92760
C         16.00602        19.16912         0.87216
C         17.25505        18.47973         0.94070
C         18.48160         2.01179         1.41677
C         18.50124         3.51247         1.61029
C         19.72169         1.34414         1.33389
C         19.77962         4.17748         1.14632
C         18.49250         6.17725         0.62017
C         18.57047         8.30732         0.81416
C         19.76059         5.56278         0.88037
C         19.80166         8.59728         1.33743
C         18.67463        10.68234         2.19147
C         18.53272        12.11539         1.80019
C         19.95752         9.94489         1.94295
C         19.75432        12.78015         1.46746
C         18.51441        14.87790         1.13958
C         18.50841        16.31856         0.99759
C         19.74798        14.18913         1.21049
C         19.71886        17.03365         0.98602
C         18.46757        19.17151         0.95432
C         19.71661        18.48514         0.92751
C         20.97271         2.02470         1.17834
C         20.98540         3.47167         1.08317
C         22.18616         1.33969         0.99115
C         22.20153         4.18646         0.81442
C         20.98310         6.31228         0.80645
C         21.01428         7.76612         1.16263
C         22.19279         5.61976         0.73784
C         22.33167         8.50659         1.19472
C         21.11610        10.69534         1.43818
C         21.00284        12.07201         1.28270
C         22.31207         9.98007         1.14339
C         22.13619        12.75074         0.55972
C         20.98372        14.91290         1.00176
C         20.96907        16.33701         0.95887
C         22.19900        14.22609         0.80764
C         22.19209        17.04329         0.75513
C         20.92179        19.18129         0.83016
C         22.18428        18.50979         0.72371
C         23.41598         2.02831         0.77805
C         23.41213         3.45579         0.74962
C         24.62134         1.31217         0.48892
C         24.68405         4.18775         0.73584
C         23.43785         6.37020         0.29467
C         23.56442         7.81079         0.75081
C         24.72353         5.62671         0.51106
C         24.74523         8.47273         0.71884
C         23.50870        10.67511         0.87330
C         23.46609        12.05444         0.67900
C         24.83674         9.95980         1.01142
C         24.67448        12.79055         0.43222
C         23.41827        14.92130         0.59768
C         23.39101        16.34581         0.55750
C         24.64892        14.20139         0.41458
C         24.56216        17.10651        -0.01771
C         23.36690        19.21285         0.63383
C         24.70420        18.52177         0.56800
C         25.83902         1.94666         0.18679
C         25.97339         3.39439         0.44093
C         26.97385         1.27232        -0.31123
C         27.08888         4.15303        -0.12551
C         25.93938         6.27351         0.34500
C         26.07574         7.75572         0.61798
C         27.11299         5.54370        -0.02025
C         27.06896         8.47360        -0.27670
C         25.90726        10.63263         0.16744
C         25.86992        12.06230         0.10788
C         26.95513         9.91196        -0.40267
C         27.04792        12.78701        -0.29989
C         25.95569        14.94654         0.49792
C         25.87969        16.37573         0.02345
C         27.11428        14.20229        -0.12255
C         27.03175        17.06569        -0.28484
C         25.73003        19.29740        -0.27582
C         27.01965        18.51342        -0.44578
C         28.14628         1.96907        -0.69906
C         28.18133         3.40471        -0.69855
C         29.30255         1.27472        -1.16654
C         29.28715         4.09454        -1.22431
C         28.36765         6.31551        -0.39353
C         28.11444         7.75801        -0.80250
C         29.14344         5.57675        -1.49713
C         29.13037         8.42129        -1.71796
C         27.96292        10.65581        -1.26454
C         28.14696        12.08922        -0.83336
C         29.26171         9.90730        -1.43972
C         29.36932        12.76530        -1.07358
C         28.28431        14.89663        -0.43008
C         28.30082        16.35647        -0.42263
C         29.45245        14.17883        -0.85923
C         29.46618        17.04382        -0.70099
C         28.18280        19.17431        -0.72010
C         29.43426        18.47676        -0.89608
C         30.42094         1.96086        -1.59185
C         30.43000         3.38477        -1.64754
C         31.58768         4.12070        -2.07921
C         30.45187         6.28425        -1.77833
C         30.44982         7.67394        -1.78079
C         31.60954         5.49248        -2.08749
C         31.64957         8.44442        -1.94942
C         30.45491        10.57121        -1.60811
C         30.53270        12.03345        -1.48140
C         31.65825         9.80620        -1.87632
C         31.71582        12.73954        -1.69773
C         30.68300        14.85973        -1.06810
C         30.79963        16.32430        -0.68309
C         31.78934        14.12751        -1.48906
C         31.87436        17.08660        -1.41644
C         30.57113        19.14476        -1.32459
C         31.77023        18.42278        -1.63288
O         16.51751        10.34060         3.07836
O         21.80837         7.90505         2.42636
O         16.89189         3.69517        -0.30095
O         19.57696        10.30529         3.30719
O         18.51494         7.32594        -0.18114
O          9.91134        13.56988        -1.14629
O         25.60837         3.77195         1.80199
O          4.84564        10.41977        -1.93909
O         14.49138         8.91035         2.82708
O          8.91705         8.18097         2.14702
O         23.26148         6.45536        -1.17030
H         24.10555         6.77159        -1.55842
O         24.23307        17.31073        -1.43141
H         24.07237        16.43129        -1.83292
O         12.39312        14.31951        -1.28554
H         11.57067        13.90807        -1.65329
O         31.22183        16.30816         0.73265
H         31.31937        17.24338         1.01211
O         26.67775         7.81025         1.96928
H         26.14781         7.21917         2.54829
O          1.77742        14.38829         0.85151
H          1.83254        15.32274         1.14418
O         11.07217        14.64161         2.14900
H         10.51392        15.35273         2.55686
O          5.42605        10.60477         1.64927
H          6.10388        10.94588         2.27015
O         15.97338         8.33024        -0.50172
H         16.72939         7.88721        -0.95035
O         14.86639        12.21846        -0.66848
H         15.50977        12.81390        -1.11953
O          9.57899         5.54714         2.55725
H          9.39328         6.47449         2.85028
O          4.61408         0.54328         0.39453
H          4.39568         1.19914         1.08817
O         21.77708        12.61869        -0.88758
H         22.50937        13.02252        -1.40135
O         25.24677        18.45281         1.91094
H         24.61959        17.94447         2.46727
O          4.51414        17.33031         1.50504
H          3.75938        17.95448         1.55937
O         18.43684         3.75348         3.05009
H         19.21711         3.32768         3.46366
O          9.73638        17.08723         2.30837
H         10.36024        17.76887         2.64075
O          1.74454         8.19048         0.17408
H          1.68486         7.21578         0.26889
O         13.57829         6.48999        -1.00669
H         13.64734         5.56571        -1.32904
O         25.98852        20.55744         0.34396
H         26.13779        20.37304         1.29657
O         13.95755         2.03573        -1.04888
H         14.86682         2.39548        -1.15114
O         13.34817        12.74291         2.64389
H         12.54534        13.31373         2.70506
O         16.33434        14.69772        -0.91003
H         15.62359        15.20398        -1.36224
O         29.21033         6.37654         0.78698
H         28.68797         6.82368         1.49055
O         28.30179         5.66056        -2.68443
H         28.77612         5.22208        -3.42096
O         25.23707        10.12016         2.40154
H         26.00499         9.51570         2.54372
O         28.55729         8.34222        -3.08629
H         29.27376         8.58837        -3.70977
O         26.24864        15.03794         1.94678
H         27.12728        15.46582         2.03719
O         27.34412        10.72322        -2.60411
H         27.46569         9.82311        -3.00327
H          0.81437         1.58938        -2.69319
H          0.79511         4.05626        -2.63933
H          2.79316         0.32277        -1.83770
H          1.08964         5.96226        -3.07358
H          0.88394         8.37465        -2.70696
H          0.35720        10.15571        -1.34686
H          0.32094        12.61640        -1.21760
H          0.47789        14.55229        -1.78546
H          0.71873        16.96316        -2.15795
H          1.83243        19.10349        -1.65918
H          5.31271         0.48024        -1.53765
H          3.90503        20.35080        -1.15801
H          7.46128         0.27497        -0.24261
H          6.29102        20.33571        -0.51540
H          9.88722         0.27370         0.24255
H          8.66151        20.31823        -0.01338
H         12.30961         0.29685         0.42381
H         11.11965        20.29069         0.20201
H         14.68526         0.29393         1.25639
H         13.56057        20.27938         0.64443
H         17.23319         0.24890         1.44307
H         16.00700        20.26966         0.87411
H         19.72581         0.24362         1.28829
H         18.46431        20.27178         0.93337
H         22.19072         0.23932         1.00208
H         20.90779        20.28139         0.80235
H         24.56170         0.21687         0.39728
H         23.35525        20.31247         0.68945
H         26.94314         0.17819        -0.42467
H         25.29140        19.50057        -1.28653
H         29.29837         0.17502        -1.16560
H         28.17268        20.27020        -0.81722
H         31.31482         1.41023        -1.91961
H         32.48912         3.55978        -2.36645
H         32.54073         5.99879        -2.37902
H         32.60401         7.91996        -2.09617
H         32.61588        10.33028        -1.98769
H         32.62950        12.22107        -2.01673
H         32.75891        14.62055        -1.64091
H         32.81864        16.57658        -1.65332
H         30.53348        20.22798        -1.50587
H         32.61017        18.97226        -2.08324
