         324
 CSIRO Nanostructure Databank - Neutral Graphene Oxide Data Set
C         30.44922        57.01548        -0.92389
C         30.46222        58.40829        -1.15398
C         29.29836        59.09437        -1.59396
C         30.53562        61.17188        -1.75312
C         29.34337        60.45749        -1.87840
C         32.77186        52.81592         0.15878
C         32.78074        54.20299        -0.00815
C         31.61953        54.92199        -0.40454
C         32.83150        57.07587        -0.28018
C         31.62005        56.32837        -0.52997
C         32.85853        58.49600        -0.49066
C         31.68050        59.14329        -0.97146
C         32.95697        61.21927        -1.23725
C         31.71703        60.53066        -1.30145
C         35.27359        48.54661         0.19077
C         35.21790        49.98569         0.28959
C         34.01930        50.64659         0.41264
C         35.22626        52.84724         0.65520
C         33.92676        52.09540         0.79389
C         35.18845        54.24601         0.58846
C         33.99497        54.95402         0.24690
C         35.21501        57.12209         0.31246
C         34.00466        56.37009         0.09717
C         35.19250        58.54428         0.25147
C         34.05108        59.25709        -0.25766
C         35.36821        61.35592        -0.93603
C         34.11989        60.62913        -0.73045
C         37.75154        44.29742         0.25684
C         37.71016        45.68833         0.13638
C         36.51345        46.42906         0.17136
C         37.70991        48.60509        -0.34350
C         36.46423        47.84284         0.05350
C         37.69493        50.05179         0.11845
C         36.48208        50.72345         0.36107
C         37.71739        52.82810         0.65985
C         36.47635        52.13111         0.61591
C         37.74004        54.28219         0.92819
C         36.40691        55.02256         0.87301
C         37.65436        57.18315         0.70396
C         36.43327        56.46890         0.61466
C         37.62546        58.60096         0.74994
C         36.36859        59.19527         0.70912
C         37.86564        61.46463        -0.42184
C         36.49775        61.18419        -0.15811
C         40.23200        39.93681         0.04098
C         39.84532        41.18970         0.51726
C         38.87866        42.12791         0.09144
C         40.20674        44.23579         0.55916
C         38.96856        43.53136         0.35619
C         40.15783        45.75233         0.65630
C         39.02136        46.37784        -0.15576
C         40.16287        48.56654         0.10233
C         38.99024        47.88350         0.01131
C         40.17537        50.03792        -0.25558
C         38.91443        50.75370         0.17165
C         40.21275        52.86484         0.54400
C         38.92410        52.13386         0.45499
C         40.22322        54.36748         0.57463
C         38.94341        55.08762         0.65411
C         40.13527        57.26529         0.65919
C         38.92306        56.47704         0.69348
C         40.13549        58.64957         0.81104
C         38.85984        59.46437         1.00278
C         40.22145        61.35239         0.04586
C         38.95100        60.77511         0.17529
C         42.68347        35.60852         0.52783
C         42.66202        37.12238         0.75110
C         41.51145        37.90274         0.32276
C         42.73269        40.01535         0.66044
C         41.47655        39.28883         0.42870
C         42.78038        41.45590         0.64722
C         41.62468        42.23023         0.93598
C         42.72130        44.32098         0.43810
C         41.48058        43.60686         0.63989
C         42.70954        45.74091         0.33975
C         41.46214        46.46641         0.34822
C         42.65922        48.61535         0.24004
C         41.43790        47.85317         0.21339
C         42.65840        50.00125         0.26081
C         41.44200        50.75899         0.12859
C         42.71499        52.88347         0.10969
C         41.45193        52.13112         0.21592
C         42.72716        54.38128         0.12867
C         41.43495        55.12283         0.11688
C         42.62172        57.10926         1.12890
C         41.45674        56.65277         0.23002
C         42.63990        58.63322         1.13754
C         41.38460        59.34571         0.81249
C         42.67063        61.42381         0.39961
C         41.43285        60.72906         0.48253
C         44.98462        34.21984        -2.24632
C         43.79739        34.55276        -1.47887
C         45.21775        35.66726         0.17521
C         43.88889        35.20033        -0.28891
C         45.27664        37.11767         0.64733
C         43.99104        37.87546         0.84252
C         45.21260        40.02059         0.44563
C         43.97215        39.33115         0.61523
C         45.21877        41.43868         0.30765
C         43.98383        42.15652         0.39546
C         45.16591        44.31188         0.22439
C         43.94883        43.60086         0.33892
C         45.14816        45.71130         0.30762
C         43.93670        46.42915         0.29628
C         45.14847        48.55819         0.83289
C         43.98557        47.92196         0.09608
C         45.16720        49.99424         1.04900
C         43.86608        50.73893         0.71506
C         45.22882        52.91523         0.68056
C         44.01818        52.15828         0.31766
C         45.21580        54.33955         0.60946
C         43.99255        55.08641         0.46111
C         45.18187        57.19557         0.79852
C         43.95561        56.46010         0.73014
C         45.20097        58.62155         0.82452
C         43.94408        59.37898         1.01422
C         45.14251        61.45924         0.41351
C         43.91641        60.79962         0.59528
C         46.22703        34.41554        -1.76094
C         47.68611        35.82437        -0.31863
C         46.45611        34.96183        -0.36855
C         47.69354        37.18262        -0.02819
C         46.49437        37.88859         0.34038
C         47.67911        40.02537         0.04496
C         46.46436        39.30022         0.30512
C         47.66187        41.44602        -0.00164
C         46.45068        42.13099         0.10366
C         47.71088        44.27861         0.26397
C         46.43582        43.61005        -0.19543
C         47.71507        45.69185         0.65605
C         46.40888        46.43123         0.60546
C         47.71751        48.62811         0.62103
C         46.42337        47.91543         0.49013
C         47.67724        50.01858         1.18389
C         46.41099        50.78176         1.08106
C         47.64654        52.95639         1.27478
C         46.40138        52.18162         1.03529
C         47.68522        54.38187         0.89270
C         46.44009        55.06797         0.74484
C         47.65574        57.20175         0.63648
C         46.42425        56.49024         0.70928
C         47.64565        58.62293         0.54959
C         46.39899        59.32818         0.63611
C         47.60978        61.45408         0.35378
C         46.39081        60.77436         0.49206
C         48.90173        37.94144        -0.23066
C         50.17992        40.04297        -0.61694
C         48.90563        39.31525        -0.20819
C         50.20953        41.49332        -0.19594
C         48.90215        42.22043        -0.43824
C         50.15080        44.31725         0.34621
C         48.91377        43.62287         0.15520
C         50.17436        45.72084         0.36093
C         48.97783        46.44563         0.53316
C         50.21391        48.55083         0.74263
C         48.99788        47.86150         0.68963
C         50.19136        50.03365         0.79480
C         48.97848        50.73513         1.32105
C         50.20741        52.97892         1.10321
C         48.97584        52.23509         1.42078
C         50.17765        54.34266         0.82127
C         48.90538        55.05724         0.76114
C         50.08423        57.19374         0.30022
C         48.89389        56.48667         0.55143
C         50.09208        58.61154         0.25851
C         48.86705        59.33001         0.39355
C         50.08232        61.45362         0.19652
C         48.86071        60.76968         0.32082
C         51.35227        42.11877         0.14896
C         52.67292        44.32566         0.35613
C         51.40719        43.54506         0.65140
C         52.70731        45.69382         0.25062
C         51.43531        46.46995        -0.00292
C         52.68404        48.55504         0.53749
C         51.47067        47.88722         0.52707
C         52.78085        50.00426         0.95140
C         51.47630        50.77024         0.78028
C         52.72986        52.96916         0.74266
C         51.48275        52.23463         1.11272
C         52.62177        54.39454         0.39380
C         51.39565        55.04245         0.46376
C         52.59100        57.19471        -0.01252
C         51.30119        56.42654        -0.13389
C         52.57116        58.61855         0.03758
C         51.32834        59.32760         0.11977
C         52.55625        61.45713         0.06200
C         51.32383        60.75993         0.12586
C         53.92671        46.45950         0.21248
C         55.15975        48.61460         0.14756
C         53.93473        47.85948         0.27571
C         55.18497        50.00801         0.06061
C         53.88554        50.71390         0.18048
C         55.10560        52.94327        -0.11934
C         53.85674        52.20427         0.12558
C         55.03377        54.34395        -0.23485
C         53.82173        55.05610        -0.04868
C         55.04992        57.21174        -0.14511
C         53.80243        56.49845        -0.12092
C         55.04041        58.62882        -0.00004
C         53.79976        59.33340         0.03658
C         55.02922        61.46215        -0.01012
C         53.79347        60.77404         0.04026
C         56.34826        50.80373        -0.15955
C         57.53717        52.98646        -0.47071
C         56.32269        52.20938        -0.25715
C         57.51430        54.33265        -0.65943
C         56.22133        55.08174        -0.77521
C         57.49244        57.20529        -0.22372
C         56.27414        56.52055        -0.33898
C         57.48671        58.59710         0.09485
C         56.27951        59.32851         0.09325
C         57.48410        61.47062        -0.13671
C         56.27386        60.78305         0.03780
C         58.75553        55.11076        -1.02851
C         59.94695        57.14786        -0.25221
C         58.76632        56.51945        -0.45471
C         60.06519        58.49756         0.40546
C         58.75105        59.28208         0.40343
C         60.02970        61.42159        -0.23502
C         58.75666        60.83687         0.15766
C         61.24270        59.29300        -0.09615
C         61.20076        60.65492        -0.31481
O         48.74222        42.41019        -1.83613
O         40.60637        41.62334         1.64574
O         50.73847        50.57968        -0.46820
O         43.30735        59.15654         2.33818
O         48.26094        52.72502         2.59346
O         48.38800        50.07077         2.47763
O         40.44044        53.59465         1.81786
O         42.02846        54.74637        -1.15822
O         53.43520        51.38342        -1.03943
O         45.38111        35.98513         1.58126
O         44.19886        50.48504         2.08584
O         43.23593        37.50756         2.03875
O         37.03153        54.66547         2.15309
O         43.52950        52.41592        -1.03023
O         52.44872        52.63247         2.15700
O         36.27775        60.53728         1.08381
O         58.70423        60.19073         1.50572
O         46.95569        46.00286         1.89887
O         47.11510        48.48743        -0.73074
O         55.94925        55.21822        -2.30451
O         42.35228        56.65383         2.46818
H         42.78832        57.28711         3.08262
O         41.72138        57.21562        -1.07735
H         42.03727        56.47049        -1.64835
O         51.09753        56.21143        -1.58645
H         51.90556        55.77472        -1.93223
O         41.47063        35.21570        -0.10343
H         41.40151        34.24088        -0.06182
O         53.12331        50.01641         2.35787
H         53.06210        50.95383         2.67089
O         56.04047        53.91067        -2.88614
H         55.16453        53.49646        -2.68553
O         38.81832        59.87263         2.39414
H         37.97615        60.36338         2.51989
O         44.28183        48.11069        -1.34029
H         45.25329        48.04042        -1.48044
O         46.69984        33.81437         0.50194
H         46.64686        34.15356         1.42275
O         51.40915        43.41338         2.12560
H         51.42985        44.31627         2.50888
O         37.70337        48.64260        -1.82880
H         36.85816        49.05887        -2.10587
O         51.37400        46.60773        -1.46188
H         50.62014        47.19612        -1.68053
O         40.16740        50.07789        -1.72073
H         39.38685        49.55042        -2.02217
O         39.31159        46.15389        -1.56125
H         38.73483        46.75999        -2.07849
O         60.36087        58.21223         1.81512
H         60.12407        59.02869         2.31314
O         46.44847        43.73558        -1.65444
H         47.27901        43.24025        -1.96323
O         59.94379        54.40951        -0.67085
H         60.00425        54.38030         0.30585
O         33.62403        52.09075         2.25742
H         33.79504        52.99751         2.59251
O         39.85640        46.03961         2.05575
H         40.55901        45.64119         2.61107
O         51.32810        39.32864        -0.15846
H         51.35750        39.38674         0.81838
H         29.52181        56.44762        -1.09170
H         28.36061        58.53395        -1.71707
H         30.56749        62.24156        -2.00484
H         28.43471        60.97193        -2.22142
H         31.83536        52.26106        -0.00380
H         30.69014        54.36811        -0.60437
H         33.00291        62.25409        -1.60767
H         34.33878        47.98692         0.35123
H         33.07998        50.07411         0.36920
H         35.41846        62.01418        -1.81667
H         36.80100        43.74145         0.28315
H         35.57196        45.89603         0.38133
H         38.10949        62.24841        -1.15702
H         39.55679        39.37539        -0.62198
H         38.01750        41.77575        -0.49556
H         40.29752        62.34870        -0.41751
H         42.75963        35.11300         1.53710
H         40.63727        37.36221        -0.06790
H         42.65398        62.48106         0.09444
H         44.84430        33.78596        -3.24693
H         42.81093        34.28319        -1.88277
H         45.14318        62.53470         0.17994
H         47.10973        34.12304        -2.34765
H         48.63456        35.34108        -0.59876
H         47.60348        62.54963         0.24932
H         49.82707        37.40172        -0.48030
H         50.21470        40.02501        -1.74091
H         50.08477        62.55337         0.16313
H         52.28432        41.53358         0.21931
H         53.62444        43.77440         0.43878
H         52.55000        62.55730         0.05451
H         54.88606        45.91958         0.17480
H         56.09953        48.05239         0.03386
H         55.02712        62.56123        -0.06137
H         57.31764        50.29216        -0.26265
H         58.50377        52.45904        -0.48580
H         57.47495        62.51857        -0.47066
H         58.76015        55.20289        -2.15093
H         60.88224        56.60469        -0.45980
H         60.03112        62.45283        -0.61540
H         62.20226        58.76199        -0.17064
H         62.12366        61.16183        -0.63446
