         480
 CSIRO Nanostructure Databank - Neutral Graphene Oxide Data Set
C         38.04515        49.81538         2.29209
C         37.13011        50.32537         3.20278
C         38.43478        52.34988         3.38951
C         37.32750        51.59921         3.75680
C         39.90904        48.83724         0.24588
C         40.16182        50.01758         0.97106
C         39.18268        50.55922         1.90503
C         40.52804        52.64205         2.04815
C         39.37995        51.85270         2.46137
C         40.65127        54.00649         2.39831
C         42.08221        48.99322        -0.79651
C         40.83631        48.36617        -0.67758
C         42.43159        50.11906        -0.02153
C         41.39477        50.70339         0.76552
C         42.66875        52.81505         0.82338
C         41.55091        52.04920         1.25484
C         42.72699        54.20558         1.12884
C         41.70872        54.76856         1.94002
C         45.35892        45.83175        -1.22516
C         44.21032        46.51872        -1.61448
C         44.97176        48.58763        -0.50703
C         44.04237        47.87708        -1.29279
C         44.96221        50.06302        -0.31268
C         43.74603        50.76171        -0.06775
C         44.97675        52.89290        -0.09853
C         43.79827        52.15857         0.19373
C         44.85396        54.38214        -0.26699
C         43.80231        55.00809         0.61931
C         44.91540        57.15245         0.33061
C         43.81177        56.39848         0.73374
C         47.73454        44.50846        -0.01055
C         47.66407        45.90362        -0.23211
C         46.32556        46.48590        -0.43773
C         47.80563        48.83404        -0.19537
C         46.03490        47.79814        -0.02250
C         47.45842        50.13218        -0.72659
C         46.17708        50.80003        -0.37906
C         47.41895        52.99151        -0.62020
C         46.18056        52.22462        -0.39762
C         47.35809        54.43246        -0.51777
C         46.17517        55.11755        -0.25303
C         47.33220        57.32853        -0.11112
C         46.13641        56.54595        -0.06173
C         47.38708        58.66223         0.33650
C         50.10680        44.49469        -0.52284
C         48.93499        43.83236        -0.08071
C         50.07222        45.91047        -0.72205
C         48.86649        46.63167        -0.45851
C         50.01501        48.81787        -1.15982
C         48.87911        48.07599        -0.64997
C         49.99369        50.19981        -1.13687
C         48.71740        50.93012        -1.12352
C         49.91427        53.09423        -0.81729
C         48.65515        52.38285        -0.89823
C         49.89472        54.50453        -0.66690
C         48.59889        55.19050        -0.78432
C         49.85200        57.40803        -0.34217
C         48.57882        56.71756        -0.58563
C         49.81659        58.78475         0.00854
C         48.57041        59.38432         0.32952
C         52.66380        41.69554        -0.79018
C         51.48359        42.36262        -0.49285
C         52.30243        44.37177        -1.59959
C         51.28923        43.72427        -0.84768
C         52.17042        45.77385        -1.86869
C         51.19466        46.58830        -1.33749
C         52.54790        48.83008        -1.22166
C         51.25148        48.09449        -1.66309
C         52.48320        50.21208        -0.95401
C         51.25326        50.98745        -1.39550
C         52.35519        53.10768        -0.56319
C         51.17351        52.41369        -0.87383
C         52.33037        54.53844        -0.33958
C         51.08887        55.24248        -0.47789
C         52.30140        57.37468        -0.15113
C         51.08337        56.67945        -0.37130
C         52.32402        58.86121        -0.36628
C         51.03773        59.54854         0.03831
C         52.27087        61.63690         0.22867
C         51.05464        60.92273         0.22178
C         55.15587        40.37302        -1.95364
C         55.05201        41.74242        -1.65451
C         53.70803        42.34181        -1.50010
C         55.37952        44.77501        -1.78667
C         53.46168        43.63634        -1.95065
C         55.26369        46.16857        -1.50171
C         54.11943        46.91931        -1.77276
C         54.93213        48.83935        -0.50469
C         53.82752        48.18632        -1.17823
C         54.83131        50.24972        -0.19809
C         53.62960        50.95085        -0.51168
C         54.75069        53.06407         0.09472
C         53.59828        52.37895        -0.36745
C         54.83552        54.57098         0.01954
C         53.50047        55.25868        -0.00850
C         54.70166        57.39709         0.52295
C         53.50236        56.67378         0.09776
C         54.69437        58.81055         0.55597
C         53.54871        59.54686         0.17905
C         54.74134        61.75510         0.44282
C         53.49297        60.96315         0.26589
C         54.91939        62.94027        -0.42486
C         57.55188        40.40034        -1.54281
C         56.39155        39.73811        -1.99950
C         57.44047        41.74367        -1.12317
C         56.23885        42.46726        -1.32774
C         57.35733        44.51194        -0.36717
C         56.27269        43.91919        -1.12925
C         57.15273        45.91459         0.16956
C         56.44144        46.81629        -0.84692
C         57.21245        48.73843         0.49562
C         56.10413        48.14170        -0.23826
C         57.17825        50.22511         0.68621
C         55.96101        50.95329         0.27057
C         57.01378        53.01442         1.19043
C         55.91401        52.35147         0.43233
C         56.90800        54.45638         1.55057
C         55.79736        55.24246         0.97857
C         57.05972        57.30710         1.44459
C         55.81690        56.62731         1.04809
C         57.08957        58.79195         1.47136
C         55.76210        59.54594         1.36064
C         57.30219        61.65271         0.67358
C         55.95037        61.04008         0.97119
C         57.37839        62.98174        -0.08200
C         56.11720        63.51101        -0.64782
C         60.32120        37.90642        -2.21785
C         59.04454        38.46688        -2.07101
C         60.02569        40.46692        -1.09674
C         58.86720        39.75185        -1.55566
C         59.90374        41.75579        -0.52250
C         58.53140        42.31164        -0.24898
C         59.65810        44.42880         0.55246
C         58.50366        43.80925        -0.07830
C         59.60828        45.82359         0.91559
C         58.43887        46.59459         0.59689
C         59.74563        48.67692         0.83227
C         58.47583        47.97181         0.61172
C         59.76437        50.23549         0.91629
C         58.46965        50.97632         0.73839
C         59.54850        53.08804         1.74205
C         58.38422        52.41427         1.10512
C         59.46229        54.42845         2.00551
C         58.13879        55.18037         2.10277
C         59.59174        57.15672         1.33827
C         58.22074        56.60744         1.64666
C         59.64883        58.63892         1.21067
C         58.43579        59.45413         1.25012
C         59.73640        61.27333         0.24691
C         58.50201        60.79883         0.68647
C         59.81035        62.46018        -0.63838
C         58.65900        63.36990        -0.74134
C         60.08545        64.98485        -1.90985
C         58.81422        64.53997        -1.44646
C         62.99832        36.93169        -2.92225
C         62.81085        38.06254        -2.06474
C         61.47031        38.58946        -1.81204
C         62.44484        40.52033        -0.59429
C         61.32164        39.86521        -1.17488
C         62.31397        41.77850         0.00870
C         61.02348        42.41507         0.01754
C         61.98666        44.25549         1.40873
C         60.86263        43.71035         0.62957
C         61.87938        45.67336         1.92553
C         60.72950        46.49357         1.48517
C         62.03988        48.60483         1.84349
C         60.81858        47.89940         1.45439
C         62.07463        50.17674         1.87134
C         60.84854        50.92793         1.61130
C         61.92794        52.95328         2.48417
C         60.76947        52.30182         1.97823
C         61.90017        54.39391         2.82950
C         60.63448        55.18151         2.53138
C         61.98542        57.26734         2.06372
C         60.76120        56.59864         2.11884
C         62.10276        58.57986         1.48808
C         60.89509        59.27105         1.09230
C         62.21073        61.38825         0.55839
C         60.93461        60.59954         0.59074
C         62.42636        62.12346        -0.78738
C         61.15616        62.89180        -1.18740
C         62.56164        64.82690        -1.97311
C         61.25569        64.26770        -1.71186
C         62.67843        66.02437        -2.77946
C         65.40787        36.96246        -2.53018
C         64.24048        36.39389        -3.12969
C         65.24311        38.15290        -1.73138
C         63.92823        38.67638        -1.49921
C         64.91899        40.62161        -0.22192
C         63.72649        39.73507        -0.43765
C         64.79701        41.84706         0.39644
C         63.47482        42.45612         0.59144
C         64.51089        44.47099         1.65093
C         63.33122        43.65905         1.25222
C         64.39360        45.69148         2.47835
C         63.08210        46.36612         2.50508
C         64.26931        48.60598         3.20502
C         63.04529        47.86590         2.67158
C         64.37689        50.07391         2.82352
C         63.17313        50.83935         2.58495
C         64.35343        52.95066         3.16669
C         63.13135        52.22865         2.73294
C         64.46288        54.40192         2.88384
C         63.19522        55.15588         2.93555
C         64.54238        57.25565         2.28942
C         63.22542        56.63418         2.58795
C         64.56770        58.59401         1.89505
C         63.35705        59.28419         1.45676
C         64.65424        61.40211         0.95653
C         63.42600        60.59312         0.95927
C         64.74923        62.56631         0.03974
C         63.66948        62.99585        -0.69993
C         65.00416        64.86793        -1.64236
C         63.72633        64.23361        -1.44838
C         65.10653        66.24465        -2.26970
C         63.85170        66.65916        -2.97843
C         68.11659        34.70083        -3.77648
C         66.90920        35.27876        -3.60781
C         67.83388        36.98531        -2.06864
C         66.69779        36.41222        -2.72731
C         67.65671        38.18032        -1.26403
C         66.37721        38.78083        -1.17496
C         67.37307        40.57292         0.32049
C         66.28331        40.18686        -0.65576
C         67.18694        41.77502         1.06217
C         65.97895        42.46501         0.97482
C         67.01820        44.41365         2.25523
C         65.88313        43.83817         1.49987
C         66.84789        45.69964         2.82930
C         65.57198        46.37183         2.86667
C         66.72557        48.49959         3.35678
C         65.56154        47.80889         3.11042
C         66.86514        49.95349         2.96535
C         65.57187        50.71237         3.03417
C         66.93303        52.85896         3.14465
C         65.63122        52.16101         3.27868
C         66.94256        54.28188         2.82275
C         65.68670        55.03159         2.71312
C         67.00610        57.05459         2.21142
C         65.75341        56.47069         2.45117
C         67.11375        58.51344         2.05732
C         65.84040        59.33258         1.96173
C         67.24022        61.23339         0.97183
C         65.95111        60.74163         1.45129
C         67.32292        62.59920         0.41664
C         66.04435        63.27156        -0.07350
C         67.46786        64.77617        -1.55524
C         66.16011        64.31024        -1.11906
C         67.49928        65.68473        -2.69721
C         66.36836        66.35790        -3.10899
C         67.61339        67.52008        -4.86503
C         66.43315        67.26240        -4.22472
C         70.56591        34.92442        -5.31758
C         70.61457        35.15042        -3.86702
C         69.33145        35.13779        -3.00926
C         70.26775        37.08770        -1.71440
C         69.12707        36.47628        -2.31276
C         70.04232        38.02516        -0.59198
C         68.74897        38.73248        -0.53719
C         69.86379        40.66822         0.64814
C         68.60939        39.91962         0.23554
C         69.62732        41.78516         1.62435
C         68.25371        42.21009         2.04717
C         69.40973        44.35858         2.87271
C         68.22567        43.70080         2.36991
C         69.32496        45.68428         3.39041
C         67.99098        46.29807         3.52277
C         69.19524        48.53836         3.94384
C         67.91416        47.80900         3.84953
C         69.25381        49.87060         3.68548
C         67.96816        50.66927         3.74282
C         69.39143        52.73259         3.21652
C         68.08893        52.11824         3.30661
C         69.44388        54.24820         3.12210
C         68.16694        54.90946         2.63677
C         69.46024        56.92131         1.96234
C         68.22987        56.29894         2.24579
C         69.55027        58.32452         1.65408
C         68.37215        59.10914         1.57419
C         69.70776        61.07718         0.92061
C         68.41281        60.44245         1.07771
C         69.79668        62.43995         0.50782
C         68.61845        62.92667        -0.32199
C         69.91535        64.87718        -1.47921
C         68.65330        64.28804        -1.00964
C         69.98480        65.49648        -2.75407
C         68.72977        65.66897        -3.56619
C         70.04677        67.15688        -5.10384
C         68.82252        66.81868        -4.54186
C         70.21925        68.28540        -5.98003
C         72.74687        35.98656        -5.60475
C         71.62439        35.24103        -6.11035
C         72.78902        36.41410        -4.31517
C         71.79076        35.95758        -3.33733
C         72.69090        37.39178        -1.46566
C         71.57696        36.76466        -2.09880
C         72.55799        38.27187        -0.42398
C         71.25264        38.57214         0.16640
C         72.24216        40.67022         1.28099
C         71.04518        39.76071         1.12636
C         72.10140        41.84840         1.89700
C         70.77138        42.24805         2.49038
C         71.79964        44.38487         3.34378
C         70.67717        43.71215         2.86775
C         71.71730        45.71245         3.77563
C         70.48595        46.37256         3.81428
C         71.64375        48.56635         4.45769
C         70.37792        47.74781         4.46341
C         71.71801        49.82292         4.00581
C         70.57084        50.49523         3.29000
C         71.84449        52.69380         3.15179
C         70.56588        52.01506         3.31782
C         71.92398        53.96592         2.70772
C         70.67738        54.69824         2.36542
C         71.97193        56.80831         1.65600
C         70.69567        56.11045         1.85136
C         72.01935        58.16103         1.54738
C         70.82027        58.95367         1.51419
C         72.08105        61.10562         1.53423
C         70.88093        60.37525         1.32348
C         72.09606        62.47500         1.36856
C         70.97352        63.12750         0.80685
C         72.27821        65.50071        -1.16401
C         71.09169        64.93007        -0.69514
C         72.35606        65.94785        -2.48243
C         71.21005        65.93547        -3.28824
C         72.56393        66.87282        -5.21808
C         71.24842        66.29276        -4.77304
C         72.64466        67.98030        -5.98612
C         71.45664        68.69116        -6.38980
O         66.71764        63.66238         1.18718
O         54.46952        44.24724        -2.71719
O         61.55049        44.53768         2.79831
O         62.63762        49.36664         0.75690
O         70.50766        54.92445         0.94219
O         62.55330        47.00785         3.73926
O         67.66442        46.80470         4.87509
O         48.49406        56.10372        -1.92386
O         65.19971        61.67789         2.29166
O         57.49294        62.93083         1.37454
O         55.16385        61.91454         1.83465
O         66.54567        59.20749         3.23695
O         71.10575        64.50543         0.63624
O         64.86953        52.56489         4.48188
O         60.28240        62.03907        -2.00107
O         63.15982        56.17869         3.97908
O         56.53242        53.39185         2.52592
O         70.50868        37.41643         0.68083
O         42.91771        48.51397        -1.81955
O         57.80048        59.33125         2.63076
O         47.80207        50.36856        -2.12454
O         68.65101        64.35645        -4.38419
O         46.98092        48.37793         0.84978
O         60.97341        54.77252         3.89560
O         71.73557        34.49254        -3.18468
O         53.17168        46.37474        -2.65873
O         65.37796        44.75601         0.45883
O         58.60654        52.00114        -0.29678
O         60.15094        49.53279        -0.30291
O         56.91183        49.34956         1.82834
O         51.20607        48.23464        -3.11732
H         51.94363        47.68543        -3.47458
O         69.63200        54.75190         4.48479
H         68.82291        54.54357         4.99863
O         65.26125        67.18326        -1.15254
H         65.97699        66.84177        -0.57453
O         67.54445        64.47528        -5.29760
H         66.77073        64.17774        -4.75908
O         52.39955        59.02685        -1.84323
H         51.60020        58.60093        -2.22217
O         67.92878        41.51552         3.30614
H         68.74555        41.56470         3.86590
O         66.59781        41.03226        -1.85234
H         66.37496        41.95916        -1.61494
O         70.72904        50.16534         1.86627
H         69.89796        50.42241         1.41048
O         67.30846        49.96106         1.56938
H         66.60583        49.55294         1.01962
O         70.62008        41.53702         3.77589
H         70.70135        40.56890         3.56309
O         57.93508        55.29547         3.54145
H         57.51037        54.45673         3.83712
O         67.54278        50.67464         5.12670
H         68.26482        51.03887         5.67864
O         68.57573        62.00918        -1.47366
H         69.35196        62.19482        -2.04402
O         55.21153        59.52321         2.69606
H         55.90782        59.86688         3.29971
O         62.06149        62.46610         1.53410
H         62.14620        62.08440         2.43369
O         59.80357        56.63490        -0.06032
H         60.63493        57.03769        -0.39415
O         70.72214        39.21535         2.42062
H         70.34027        38.31564         2.26020
O         69.52045        34.16292        -1.94979
H         70.49500        34.01238        -1.87963
O         44.33033        54.55671        -1.64163
H         44.32601        55.52043        -1.82685
O         51.39013        51.11315        -2.85035
H         51.26753        50.20360        -3.22239
O         57.42461        47.05829        -1.90632
H         57.00263        47.60769        -2.59980
O         71.11714        65.03752        -5.50446
H         70.21375        64.67216        -5.32445
O         58.19177        41.79157         1.10239
H         58.90323        42.08684         1.71142
O         70.09374        47.50209         5.87175
H         69.19416        47.09184         5.91454
O         63.57626        38.98482         0.82594
H         62.77551        38.42470         0.73903
O         56.26567        45.79119         1.30794
H         56.70526        45.23325         1.98291
O         70.36771        41.24434        -0.61144
H         69.64014        41.76601        -1.01297
O         62.69822        61.15105        -1.81452
H         61.84726        60.99573        -2.28993
O         64.07328        48.73633         4.64540
H         63.62895        47.91140         4.95451
O         55.43245        54.82384        -1.31478
H         54.81988        54.45355        -1.98624
H         37.87977        48.80875         1.88510
H         36.25590        49.72778         3.49579
H         38.57655        53.33954         3.84415
H         36.60809        52.00035         4.48386
H         38.95133        48.31145         0.35120
H         39.88207        54.49115         3.01375
H         40.60517        47.50139        -1.31254
H         41.75272        55.82969         2.21849
H         45.53175        44.80446        -1.57411
H         43.45874        46.02848        -2.24618
H         44.85514        58.24372         0.42716
H         42.95810        56.92967         1.17662
H         46.81211        43.95787         0.22111
H         46.47710        59.16681         0.68608
H         48.95478        42.75055         0.10540
H         48.53983        60.43379         0.64855
H         52.80915        40.66530        -0.43537
H         50.71265        41.83335         0.08306
H         52.25076        62.73044         0.33113
H         50.12276        61.48335         0.37663
H         54.24678        39.80906        -2.20605
H         54.02830        63.33817        -0.93322
H         56.43630        38.68964        -2.32243
H         56.18032        64.36078        -1.34283
H         60.39879        36.90778        -2.66760
H         58.18152        37.87892        -2.41010
H         60.12962        65.99421        -2.34027
H         57.96378        65.22364        -1.57637
H         62.13105        36.46688        -3.40928
H         61.77920        66.40476        -3.28380
H         64.32617        35.50216        -3.76379
H         63.86814        67.56756        -3.59591
H         68.20204        33.80073        -4.40293
H         66.05165        34.86638        -4.15693
H         67.62950        68.28611        -5.65179
H         65.53535        67.81576        -4.52728
H         69.65055        34.51125        -5.76519
H         69.33947        68.86206        -6.29797
H         73.52023        36.31084        -6.31546
H         71.58289        35.02937        -7.18817
H         73.55961        37.13091        -3.99595
H         73.69805        37.18506        -1.85502
H         73.45346        38.79729        -0.06748
H         73.22448        40.38178         0.88243
H         72.97202        42.51126         2.00382
H         72.77288        43.87846         3.38901
H         72.62831        46.22189         4.11599
H         72.51344        48.13302         4.97520
H         72.67173        50.36338         4.09906
H         72.77023        52.13039         3.33105
H         72.90277        54.41970         2.49919
H         72.89486        56.21743         1.58555
H         72.99120        58.65409         1.40862
H         72.98143        60.59514         1.90026
H         72.99360        63.06269         1.60003
H         73.15193        65.54751        -0.50156
H         73.31018        66.32461        -2.87434
H         73.47373        66.30128        -4.98313
H         73.62095        68.34751        -6.33407
H         71.56048        69.57167        -7.03891
