         204
 CSIRO Nanostructure Databank - Neutral Graphene Oxide Data Set
C        -11.10177         0.66935        -0.04579
C         -9.86968         1.41802        -0.01894
C         -8.63321         0.68941         0.00538
C         -7.40085         1.39869         0.03869
C         -6.16426         0.66974         0.01967
C         -4.90702         1.38903         0.10249
C         -3.69744         0.68433         0.21105
C         -2.42951         1.40473         0.60638
C         -1.18436         0.71163         0.11904
C         -0.02264         1.42907        -0.09391
C          1.20960         0.72957        -0.47836
C          2.49249         1.43109        -0.34978
C          3.71033         0.70439        -0.33546
C          4.92504         1.42830        -0.20779
C          6.16679         0.70536         0.24103
C          7.45739         1.45305         0.03099
C          8.67019         0.73894         0.10164
C          9.90882         1.45860         0.13248
C         11.13716         0.71105         0.23667
C         -9.85129         2.81803        -0.02194
C         -8.63146         3.54162         0.00814
C         -7.39830         2.82179         0.05117
C         -6.15707         3.53784         0.09833
C         -4.92344         2.82817         0.16058
C         -3.69604         3.55555         0.24892
C         -2.44270         2.87632         0.30420
C         -1.22226         3.57727         0.19652
C          0.01934         2.86862         0.02605
C          1.22555         3.56917        -0.11778
C          2.47996         2.84016        -0.25460
C          3.70522         3.53424        -0.34067
C          4.93805         2.83879        -0.28112
C          6.20073         3.57792        -0.20295
C          7.44123         2.86179        -0.05184
C          8.68147         3.58629         0.00640
C          9.89463         2.86127         0.10187
C         -8.60775         4.97098        -0.01045
C         -7.41311         5.68485         0.00294
C         -6.16506         4.96301         0.06311
C         -4.93466         5.66933         0.10221
C         -3.72561         4.97971         0.24332
C         -2.45940         5.69978         0.49305
C         -1.19387         5.00316         0.25312
C          0.00595         5.72424         0.13983
C          1.23654         5.01000        -0.06340
C          2.43444         5.72713        -0.25376
C          3.67148         4.98804        -0.54664
C          4.99037         5.73758        -0.52397
C          6.22176         4.97454        -0.25326
C          7.44577         5.71134        -0.08582
C          8.65321         5.00806         0.01694
C         -7.39775         7.13875        -0.03607
C         -6.23201         7.85729        -0.06177
C         -4.94107         7.13820        -0.07779
C         -3.68835         7.92101         0.11935
C         -2.43512         7.20751         0.51038
C         -1.17973         7.90600         0.21949
C          0.01450         7.17641         0.11528
C          1.25450         7.87155        -0.07211
C          2.46490         7.15220        -0.21414
C          3.72901         7.86178        -0.23068
C          4.95037         7.18219        -0.25389
C          6.20441         7.86748        -0.09164
C          7.39901         7.14870        -0.04557
C         -6.15913         9.30993        -0.18043
C         -5.01166        10.01788        -0.04140
C         -3.73160         9.39159         0.46851
C         -2.42647        10.04908         0.07011
C         -1.22068         9.34381         0.03503
C          0.04102        10.01384        -0.11229
C          1.25131         9.31586        -0.11053
C          2.51401         9.99761        -0.13151
C          3.71765         9.30574        -0.13224
C          4.98723         9.99011        -0.04644
C          6.16852         9.30889        -0.00282
C        -11.10698        -0.69685        -0.04816
C         -9.88012        -1.45511        -0.02340
C         -8.63960        -0.73513         0.00492
C         -7.40870        -1.45309         0.01055
C         -6.18042        -0.72961        -0.02248
C         -4.90189        -1.48067        -0.28074
C         -3.66131        -0.73568         0.16111
C         -2.45403        -1.42650         0.30532
C         -1.18416        -0.72934         0.16485
C         -0.00330        -1.44986         0.06485
C          1.22196        -0.79276        -0.36546
C          2.52074        -1.48065        -0.23163
C          3.69478        -0.75613        -0.33209
C          4.98552        -1.47831        -0.46302
C          6.24949        -0.71047        -0.26790
C          7.48629        -1.44979         0.04231
C          8.68784        -0.71030         0.15745
C          9.91782        -1.41054         0.25910
C         11.14232        -0.65509         0.30338
C         -9.87085        -2.85411        -0.03837
C         -8.65450        -3.59102         0.00850
C         -7.41691        -2.88362         0.04777
C         -6.17811        -3.60712         0.20011
C         -4.96676        -2.90317         0.21082
C         -3.72454        -3.57186         0.52648
C         -2.43226        -2.87160         0.33457
C         -1.25805        -3.58241         0.27216
C          0.06637        -2.89097         0.48946
C          1.30492        -3.61484        -0.00673
C          2.49161        -2.92615        -0.16686
C          3.75073        -3.69089        -0.52236
C          5.02606        -2.93848        -0.22835
C          6.19498        -3.57944         0.08095
C          7.46624        -2.85381         0.12277
C          8.70836        -3.54580         0.21581
C          9.90304        -2.82930         0.26299
C         -8.64870        -5.01709        -0.00185
C         -7.45547        -5.75025         0.06597
C         -6.20070        -5.05350         0.23045
C         -5.00654        -5.79384         0.25909
C         -3.73631        -5.12586         0.53749
C         -2.49790        -5.81641         0.19192
C         -1.28578        -5.02718        -0.02432
C          0.01344        -5.77070        -0.23920
C          1.29538        -5.06034        -0.06598
C          2.46821        -5.79557        -0.02086
C          3.74934        -5.10817        -0.00989
C          4.90107        -5.76026         0.29944
C          6.15994        -4.99412         0.65032
C          7.44222        -5.79253         0.38872
C          8.71840        -5.03804         0.21340
C         -7.43557        -7.17835        -0.04017
C         -6.24376        -7.89719        -0.08438
C         -4.98547        -7.20257         0.02886
C         -3.75869        -7.90465        -0.05831
C         -2.50641        -7.19140        -0.05786
C         -1.25934        -7.91647        -0.18402
C         -0.02429        -7.24030        -0.15218
C          1.19972        -7.95074        -0.08805
C          2.44214        -7.24386         0.03561
C          3.63835        -7.94873         0.18348
C          4.89885        -7.23589         0.62678
C          6.15645        -7.90866         0.09586
C          7.31785        -7.20998        -0.02721
C         -6.20551        -9.33346        -0.23720
C         -5.02375       -10.01414        -0.28815
C         -3.74933        -9.33462        -0.21523
C         -2.54012       -10.02658        -0.28047
C         -1.27536        -9.35369        -0.23027
C         -0.05516       -10.05565        -0.22386
C          1.18967        -9.38224        -0.12955
C          2.44086       -10.06368        -0.12153
C          3.64366        -9.36729         0.02990
C          4.92992       -10.03725        -0.08719
C          6.09677        -9.34094        -0.14062
O         -2.48192         6.47303         1.76893
O          1.09463        -0.10916        -1.66999
O         -4.09277         7.59176        -1.23455
O          6.07603        -4.81399         2.10227
O         -3.72412        -4.34460         1.77752
O         -2.36611         1.30834         2.08578
H         -3.12552         1.81713         2.44268
O          4.33653         5.38832        -1.79953
O          0.24237        -2.88439         1.95951
H         -0.53773        -2.43415         2.35014
O         -3.79573         9.46375         1.93083
H         -3.71085        10.40437         2.19171
O          5.76733        -0.96489        -1.62188
O         -0.73685        -5.25610        -1.39992
O          3.73882        -3.82531        -1.98556
H          3.74484        -2.92103        -2.36759
O          6.02443         0.55955         1.69917
H          6.05298         1.45635         2.09460
O          8.42053        -5.64269         1.50526
H          7.01032        -4.83579         2.42963
O          4.93522        -7.35764         2.08478
H          5.35833        -6.53235         2.43109
O         -4.77088        -1.54865        -1.75373
H         -5.60464        -1.93045        -2.10253
H         12.09438        -1.20015         0.38360
H         12.08583         1.26722         0.26580
H         10.84500         3.41312         0.15868
H          9.59889         5.56249         0.11068
H          8.34809         7.69578         0.05993
H          7.11981         9.85329         0.08972
H          4.98228        11.08877         0.01189
H          2.52075        11.09797        -0.10415
H          0.05243        11.11194        -0.18531
H         -2.39853        11.14801        -0.00884
H         -5.03467        11.11210        -0.16853
H         -7.09155         9.84062        -0.43139
H         -8.36585         7.66301        -0.05233
H         -9.56395         5.51469        -0.04724
H        -10.80188         3.37188        -0.04911
H        -12.05115         1.22486        -0.06520
H        -12.06057        -1.24500        -0.07014
H        -10.82514        -3.40128        -0.07092
H         -9.60653        -5.55106        -0.09290
H         -8.39331        -7.71343        -0.13050
H         -7.15899        -9.87766        -0.30940
H         -5.02388       -11.10856        -0.40153
H         -2.55097       -11.12382        -0.36746
H         -0.06728       -11.15526        -0.26771
H          2.45750       -11.15817        -0.23537
H          4.93380       -11.12774        -0.23421
H          7.04320        -9.86789        -0.33764
H          8.24344        -7.72910        -0.32402
H          9.57139        -5.52600        -0.30963
H         10.85833        -3.37376         0.30622
