         300
 CSIRO Nanostructure Databank - Neutral Graphene Oxide Data Set
C         30.14752        31.40916         0.57118
C         30.49667        32.65298         0.28093
C         30.31726        35.96280         0.45175
C         30.28902        37.17454         0.66640
C         30.15354        40.44424         0.45544
C         30.20940        41.67642         0.33534
C         32.71665        28.85294         0.23612
C         31.54178        29.23067         0.28398
C         32.97661        31.54376        -0.33146
C         30.93454        30.47456        -0.09980
C         32.79346        32.94208         0.14568
C         31.44011        33.60555         0.14375
C         32.72206        35.89437         0.28372
C         31.43368        35.08394         0.08274
C         32.72691        37.37959         0.64416
C         31.39043        38.12470         0.84904
C         32.54674        40.33430         0.07483
C         31.33905        39.60088         0.70686
C         32.55097        41.83029         0.08194
C         31.35570        42.53431         0.21860
C         32.59327        44.57213         0.25949
C         31.50880        43.96529         0.26069
C         35.43682        27.35121         1.03054
C         35.04633        28.79252         1.14603
C         34.14392        29.27223         0.00579
C         35.31828        31.53017         0.37728
C         34.08879        30.81341         0.02653
C         35.32337        32.98536         0.02186
C         34.04914        33.72295         0.32327
C         35.14695        35.90233        -0.37859
C         34.08133        35.23330         0.52778
C         35.19431        37.40224        -0.14896
C         33.97825        38.14731         0.22415
C         35.07201        40.34129        -0.78819
C         33.82117        39.58953        -0.23793
C         35.01688        41.89535        -0.70193
C         33.91579        42.52966         0.18484
C         35.14782        44.76092         0.05370
C         33.87207        44.03853        -0.32141
C         35.25662        46.08893        -0.72737
C         37.80446        27.25482         1.62678
C         36.46885        26.74865         1.30125
C         37.77602        28.79076         1.56450
C         36.47010        29.50838         1.24181
C         37.80832        31.58937         0.50600
C         36.48971        30.91478         0.74881
C         37.83678        33.12785         0.59452
C         36.58296        33.77253         0.02986
C         37.76782        36.05246        -0.10253
C         36.49432        35.27841         0.02357
C         37.70604        37.41979        -0.74941
C         36.33008        38.15506        -0.78866
C         37.63770        40.32573        -1.07078
C         36.40725        39.64444        -0.35150
C         37.64343        41.85260        -0.83303
C         36.36910        42.59996        -0.55933
C         37.67963        44.69449        -0.47038
C         36.41390        43.95712        -0.35715
C         37.71716        46.05241        -0.73454
C         36.39419        46.59272        -0.80076
C         39.95115        24.60645         0.11823
C         39.10702        25.12288         0.86265
C         40.40960        27.17274         1.23144
C         39.05094        26.46880         1.43206
C         40.42642        28.68277         1.24418
C         39.15544        29.55484         1.54055
C         40.37460        31.66906         0.75361
C         39.09656        30.84739         0.70438
C         40.33380        33.11500         0.33834
C         39.07388        33.80263         0.04115
C         40.32423        35.96452        -0.52156
C         39.12068        35.33601         0.17601
C         40.31288        37.41889        -0.87739
C         38.99735        38.18037        -0.93063
C         40.10279        40.26108        -0.19609
C         38.97866        39.64665        -0.67690
C         40.11288        41.73008         0.07174
C         38.93592        42.52129        -0.46834
C         40.25433        44.61219        -0.46402
C         38.92854        43.99025         0.03939
C         40.29922        46.11371        -0.65456
C         38.97144        46.82111        -0.79233
C         40.12563        48.89194        -0.07592
C         39.13021        48.21947        -0.35677
C         42.44558        24.59987        -0.83722
C         41.37271        24.93963         0.09713
C         42.75227        27.14054         0.06832
C         41.57212        26.37364         0.64173
C         42.75910        28.64570         0.04768
C         41.66732        29.41666         0.75865
C         42.70007        31.43815        -0.43667
C         41.67170        30.90153         0.59316
C         42.80274        32.98152        -0.46180
C         41.62423        33.79776        -0.02268
C         42.86763        35.96646        -0.78057
C         41.63299        35.27128        -0.28335
C         42.86931        37.46973        -0.78259
C         41.56555        38.29868        -0.95739
C         42.68063        40.23037         0.37029
C         41.41586        39.52145        -0.05378
C         42.65789        41.68994         0.89202
C         41.39066        42.46265         0.43645
C         42.83938        44.62913        -0.20165
C         41.51806        43.85944        -0.16530
C         42.82216        46.13695        -0.27781
C         41.48911        46.85464        -0.01447
C         42.72733        48.89633         0.42568
C         41.53147        48.44658        -0.37994
C         43.52980        25.16397        -1.01054
C         45.15199        27.17079        -0.83569
C         44.07345        26.32757        -0.16007
C         45.31672        28.54583        -0.07441
C         44.05395        29.38270        -0.15956
C         45.35568        31.51708        -0.53619
C         44.06036        30.73339        -0.28482
C         45.28954        32.94282         0.06074
C         44.10619        33.70880        -0.51604
C         45.40078        35.92764        -0.13055
C         44.16224        35.21568        -0.54105
C         45.29496        37.37488         0.29397
C         44.04991        38.13077        -0.09798
C         45.30216        40.32900         0.31144
C         44.02169        39.63508        -0.02233
C         45.26342        41.69829         1.00895
C         43.97806        42.50216         0.76255
C         45.40118        44.65964         0.36259
C         44.06925        43.95597         0.35409
C         45.40248        46.15453         0.28227
C         44.11828        46.91018         0.02086
C         43.78887        48.26338         0.46094
C         47.61330        27.20956        -0.58871
C         46.55416        26.60372        -0.74754
C         47.93401        28.59818        -0.13959
C         46.58193        29.32701        -0.55607
C         47.88535        31.48296        -0.22785
C         46.58098        30.74886         0.03775
C         47.90441        32.93595         0.23806
C         46.60666        33.67836        -0.00350
C         47.86626        35.89592         0.37639
C         46.58780        35.11645         0.29277
C         47.83637        37.38531         0.04741
C         46.60246        38.09248         0.69942
C         47.87768        40.28807         0.22481
C         46.57239        39.56669         0.38911
C         47.82263        41.70096         0.93238
C         46.52572        42.45256         0.50081
C         47.74928        44.60281         1.20697
C         46.54109        43.95088         0.79501
C         47.50918        45.98329         1.28626
C         46.57628        46.74552         0.94205
C         50.43273        28.96639        -0.14673
C         49.11651        29.30561        -0.80264
C         50.23232        31.66811        -0.93376
C         49.03205        30.86597        -0.65728
C         50.36245        33.00822        -0.53593
C         49.05583        33.76960        -0.39628
C         50.45154        35.86981         0.36478
C         49.16268        35.12384         0.29003
C         50.36808        37.37178         0.21891
C         49.18287        38.05113         0.31000
C         50.35277        40.34129         0.30048
C         49.15507        39.52103         0.71031
C         50.40740        41.76916         0.79063
C         49.06479        42.55441         0.59632
C         50.34161        44.49621         1.11130
C         49.02451        43.87699         1.52776
C         51.60320        29.35425        -0.11743
C         53.00606        31.54076        -0.05057
C         52.18421        30.56891        -0.60485
C         52.64879        32.75562        -0.32136
C         51.62927        33.68019        -0.35296
C         52.71011        36.03919        -0.41246
C         51.80519        35.06069         0.25496
C         52.76191        37.26735        -0.26156
C         51.58560        38.14642        -0.23244
C         52.73743        40.53833        -0.04275
C         51.57209        39.66070        -0.17455
C         52.79059        41.70603         0.37867
C         51.64859        42.65657         0.18740
C         51.43717        43.95837         0.88770
O         40.39772        32.65059         1.81191
O         38.49385        26.67167         2.74620
O         42.98559        36.70255        -2.02149
O         44.71284        40.35093        -1.07615
O         38.48855        30.88801        -0.60802
O         36.04564        33.25747        -1.22251
O         40.26665        36.36090        -1.90353
O         41.91875        25.18181         1.42087
O         37.00810        36.02105         1.15754
O         40.78147        27.89245         2.43333
O         51.28315        31.04714        -1.66066
O         51.37128        38.91797        -1.42536
O         38.26824        37.61684        -2.06320
O         45.08526        46.75189        -1.01450
O         38.82598        44.08976         1.41083
O         32.17076        35.64064        -1.04439
O         42.98145        45.33809        -1.46190
O         33.42423        33.08393         1.48776
O         37.47554        40.11379        -2.44633
O         43.85836        43.57014         1.76168
O         44.23341        37.57854         1.26697
O         33.65548        37.83524         1.64870
O         47.16779        35.52036         1.60018
O         43.43965        33.31149        -1.74603
O         45.15530        35.66169        -1.53375
O         31.89833        31.02449        -1.05181
O         38.55609        42.45469        -1.83910
O         39.82967        46.57449        -1.94625
O         41.94182        39.34842         1.28339
O         41.94137        34.76969         1.04376
O         42.21945        30.31334         1.78896
O         34.58397        42.13661        -2.07770
O         49.81974        35.29274         1.57623
O         32.75906        39.70082        -1.24970
O         31.44234        39.00319         2.00015
O         40.35649        42.21067         1.43428
O         42.13681        31.05345        -1.65548
O         36.94663        29.36190         2.62226
O         40.91763        43.86390        -1.50713
O         42.30431        27.88333        -1.10868
O         48.91237        43.00436        -0.75100
H         49.79915        43.15165        -1.16892
O         49.16664        39.42431         2.16411
H         48.32502        38.97629         2.44359
O         46.39459        42.39032        -0.93861
H         47.14951        42.90129        -1.32178
O         49.04382        43.63270         2.90565
H         49.80848        43.03357         3.09285
O         48.63417        34.11339        -1.73726
H         48.45703        33.29163        -2.24327
O         34.64532        28.77755        -1.22130
H         34.04927        29.04719        -1.94996
O         34.35098        42.45700         1.53498
H         33.78845        43.03479         2.09335
O         51.49371        42.85691        -1.20426
H         52.22322        43.42202        -1.53350
O         36.57887        39.74296         1.05571
H         36.09499        39.01817         1.51000
O         46.41229        30.67397         1.47779
H         47.26100        30.32173         1.84448
O         52.31905        34.88485         1.57269
H         51.56197        34.70139         2.17367
O         34.48433        35.44579         1.88013
H         34.06390        34.75739         2.44188
O         48.13213        28.64019         1.26578
H         47.45594        28.04612         1.67052
O         46.59262        29.45113        -1.96572
H         46.22177        28.63965        -2.38080
O         34.80387        35.64406        -1.74010
H         35.25058        36.31514        -2.31104
O         41.32061        46.74964         1.40348
H         40.54173        47.27842         1.68167
O         45.47025        28.20492         1.32047
H         45.42544        29.04636         1.83398
O         44.80024        27.41629        -2.17914
H         44.38181        26.60975        -2.55409
O         48.12140        40.39064        -1.20252
H         47.35838        40.88761        -1.59159
O         34.98829        40.26226        -2.25458
H         34.06444        39.98937        -2.49395
O         42.58038        41.55048         2.33133
H         41.62910        41.41336         2.56176
O         48.09082        32.87836         1.67891
H         47.93739        33.78783         2.04079
O         33.73919        44.00659        -1.72689
H         34.30344        44.70774        -2.12934
O         50.68797        41.67522         2.20617
H         50.12878        40.93771         2.56760
O         34.37287        29.05607         2.34824
H         35.00434        28.91731         3.08988
O         37.79510        33.40904         2.02576
H         38.65350        33.08276         2.40417
O         49.21055        28.95171        -2.16277
H         49.97207        29.43053        -2.55561
O         45.55515        31.68847        -1.93999
H         44.70059        31.98415        -2.33788
O         35.92492        38.12932        -2.17066
H         36.60176        38.74882        -2.64266
O         41.60812        38.85481        -2.27912
H         41.65636        38.10389        -2.91332
O         47.66682        37.49958        -1.37978
H         47.83114        38.43960        -1.63968
O         44.54722        25.80175         1.03712
H         43.82008        25.29980         1.47707
O         35.16332        44.99440         1.43468
H         36.05645        45.29695         1.70324
O         47.86808        41.50236         2.33979
H         46.96095        41.37907         2.71019
O         41.79382        48.60188        -1.72787
H         41.67265        49.53269        -2.00244
O         45.00840        32.91108         1.48417
H         45.63722        32.26492         1.89830
O         39.35890        30.05715         2.86417
H         39.64898        29.31007         3.43409
O         45.28844        41.44626         2.42445
H         44.37175        41.57648         2.78196
O         46.74926        37.99650         2.14585
H         45.84279        37.95274         2.53107
O         39.42215        35.57505         1.56670
H         38.64809        35.25206         2.09155
