         621
 CSIRO Nanostructure Databank - Neutral Graphene Oxide Data Set
C          5.91032        31.92868        -0.36176
C          5.94061        33.28796        -0.23600
C          8.48315        27.72904         0.27875
C          8.35114        29.01965        -0.19021
C          7.15823        29.80678        -0.02933
C          8.16144        31.55466        -1.41029
C          7.04609        31.04765        -0.63195
C          8.22552        33.68747        -1.15777
C          7.12708        34.13255        -0.33355
C          8.55154        35.97940         0.39591
C          7.29332        35.28999         0.41087
C          8.71635        37.25666         0.91866
C         11.08307        23.62892         1.22809
C         11.02359        24.99076         0.78470
C          9.79486        25.68247         0.71387
C         10.88980        27.57996        -0.37649
C          9.72261        26.99037         0.19280
C         10.74640        28.84227        -1.12659
C          9.46065        29.59672        -0.98399
C         10.65988        31.77494        -1.73534
C          9.43012        31.02947        -1.35116
C         10.69793        33.33162        -1.53116
C          9.53736        34.04087        -0.93786
C         10.96449        36.09054        -0.56199
C          9.73134        35.26017        -0.14360
C         10.79375        37.53379        -0.37086
C          9.85169        38.06392         0.56511
C         10.96683        40.27351         0.39176
C          9.93920        39.44131         0.89574
C         11.05441        41.66940         0.71127
C         13.54518        19.35090         1.68634
C         13.53698        20.74709         1.43909
C         12.33950        21.52323         1.58218
C         13.55961        23.63719         1.13601
C         12.28543        22.90289         1.31382
C         13.51119        25.06696         0.69289
C         12.21202        25.67901         0.38597
C         13.34647        27.53067        -0.85515
C         12.15144        26.93742        -0.26091
C         13.26036        28.84979        -1.55698
C         11.96057        29.58724        -1.61129
C         13.18282        31.77145        -1.65038
C         11.97312        31.07922        -1.66132
C         13.22965        33.24017        -1.61397
C         12.03166        33.98885        -1.44089
C         13.28663        36.06939        -1.59969
C         12.05949        35.40514        -1.32903
C         13.36383        37.47607        -1.82095
C         11.57094        38.47082        -1.06939
C         13.03801        40.47808        -1.14320
C         11.86081        39.73741        -0.58711
C         13.09081        41.92327        -0.73153
C         12.02141        42.49729         0.14395
C         13.16705        44.71200         0.12130
C         12.08694        43.87549         0.46691
C         13.19637        46.05227         0.52512
C         15.89780        15.00893         1.98807
C         15.91402        16.40924         1.66214
C         14.77145        17.18113         1.83814
C         15.87256        19.20110         0.96620
C         14.71237        18.58215         1.50942
C         15.84808        20.56088         0.61772
C         14.72368        21.35215         0.92002
C         15.89997        23.47082         0.08122
C         14.81447        22.82548         0.85520
C         15.88794        24.79407        -0.23560
C         14.74576        25.68548         0.06264
C         15.79076        27.50241        -1.27665
C         14.57260        26.89880        -0.77220
C         15.70389        28.82356        -2.00260
C         14.49677        29.66065        -1.62714
C         15.75741        31.76848        -1.40763
C         14.45275        31.03052        -1.66684
C         15.74808        33.25778        -1.65688
C         14.48702        33.93646        -1.60704
C         15.73616        36.11831        -1.61518
C         14.51532        35.36071        -1.63168
C         15.73437        37.55203        -1.50374
C         14.47868        38.25721        -1.60208
C         15.65796        40.46884        -1.20384
C         14.36371        39.75630        -1.51494
C         15.60963        41.80872        -0.45793
C         14.37313        42.63522        -0.69504
C         15.61541        44.83278        -0.38307
C         14.30215        44.14827        -0.73472
C         15.58755        46.17784         0.21033
C         14.39284        46.85587         0.48077
C         15.61333        49.00502         0.83669
C         14.42093        48.25960         0.79821
C         15.70306        50.39088         1.06889
C         18.30316        10.67348         1.97364
C         18.23208        12.07979         2.05768
C         17.03552        12.80066         2.01906
C         18.22195        14.82096         1.18420
C         17.01978        14.22162         1.82442
C         18.29654        16.27742         0.93743
C         17.15542        17.01364         1.18502
C         18.37551        19.06957         0.31650
C         17.16010        18.46983         0.96756
C         18.19983        20.33301        -0.45545
C         16.94438        21.13359        -0.20575
C         18.24067        23.22432        -0.89494
C         16.95111        22.59703        -0.51436
C         18.27620        24.62844        -1.00518
C         16.94042        25.31319        -1.19309
C         18.25998        27.53760        -1.30207
C         16.97227        26.81561        -1.25852
C         18.29686        28.92413        -1.79974
C         17.01534        29.58782        -2.08683
C         18.27517        31.76656        -1.81293
C         16.98802        31.08662        -1.98749
C         18.25845        33.26195        -1.96585
C         16.94917        33.96531        -1.66305
C         18.19240        36.13997        -1.52288
C         16.97245        35.40623        -1.61025
C         18.19243        37.54826        -1.44897
C         16.96139        38.26553        -1.37975
C         18.08934        40.32871        -0.66187
C         16.94145        39.69449        -1.07915
C         18.17342        41.80583        -0.52038
C         16.90463        42.58240        -0.63536
C         18.00446        44.54337         0.56649
C         16.89505        44.04964        -0.30815
C         18.01217        45.99817         0.89767
C         16.89013        46.84106         0.37703
C         18.10465        48.90157         1.40025
C         16.91170        48.29670         0.66361
C         18.17377        50.34472         0.99341
C         16.96290        51.08075         0.99674
C         18.22951        53.20950         0.98441
C         17.02020        52.51180         1.02260
C         18.31190        54.62295         1.04863
C         20.58688         6.51529         1.16825
C         20.72677         7.78912         1.78577
C         19.56707         8.60332         1.71679
C         20.73764        10.60594         2.65771
C         19.50512         9.95304         2.07734
C         20.81024        12.10356         2.30357
C         19.49202        12.90112         2.24011
C         20.75795        14.71085         0.77739
C         19.48991        14.04534         1.22870
C         20.78040        16.16524         0.47909
C         19.56720        16.88775         0.51583
C         20.78433        18.85947        -0.34159
C         19.59550        18.25090         0.09523
C         20.76364        20.17177        -1.11343
C         19.44074        20.98029        -1.01198
C         20.63046        23.16883        -1.19391
C         19.42161        22.46947        -1.06624
C         20.70380        24.57476        -1.15153
C         19.50377        25.30514        -1.11191
C         20.81296        27.45564        -1.51040
C         19.54982        26.78691        -1.12405
C         20.77041        28.89665        -1.70759
C         19.49340        29.62100        -1.79621
C         20.73220        31.81832        -1.75810
C         19.47133        31.07919        -1.87293
C         20.74677        33.14936        -1.43605
C         19.46537        33.89972        -1.31925
C         20.76639        36.08882        -1.45137
C         19.45509        35.39235        -1.26535
C         20.80031        37.58390        -1.33464
C         19.47448        38.30396        -1.36903
C         20.50239        40.17651         0.12762
C         19.42262        39.70724        -0.83631
C         20.54367        41.68785         0.30276
C         19.39542        42.41795         0.06585
C         20.53337        44.48777         0.99467
C         19.28451        43.76040         0.67706
C         20.54857        45.86884         1.20326
C         19.30849        46.66343         1.28691
C         20.61740        48.75291         1.17748
C         19.38880        48.12939         1.18822
C         20.75769        50.15811         0.62872
C         19.43638        50.94447         0.61423
C         20.77833        53.13329         0.86011
C         19.47064        52.47962         0.64218
C         20.79495        54.54525         0.93975
C         19.53926        55.30054         0.93932
C         20.79922        57.41828         0.73286
C         19.58388        56.70643         0.79541
C         20.85397        58.77616         0.42048
C         23.14459         3.78706         0.53874
C         21.87032         4.41096         0.46970
C         23.39662         6.37148         2.04385
C         21.52884         5.48085         1.30341
C         23.30924         7.74548         2.06660
C         22.00993         8.43060         2.17625
C         23.28044        10.52464         2.15530
C         21.99915         9.80993         2.35043
C         23.33451        11.93328         1.69980
C         22.06309        12.72262         1.77580
C         23.33037        14.67958         0.66685
C         22.03521        13.97909         0.95674
C         23.29111        16.12841         0.35301
C         22.02568        16.81333         0.19108
C         23.29956        18.84782        -0.54009
C         22.03501        18.18088        -0.23217
C         23.32599        20.17406        -1.07400
C         22.04721        20.97333        -0.95522
C         22.94466        23.21182        -1.92101
C         21.91545        22.43538        -1.21562
C         23.15187        24.53340        -1.72626
C         22.04408        25.30128        -1.02336
C         23.24628        27.35421        -1.87574
C         21.99562        26.72683        -1.54475
C         23.22186        28.81410        -2.04057
C         21.96314        29.57169        -1.87533
C         23.28898        31.73371        -1.60592
C         21.99456        31.05198        -1.93375
C         23.27941        33.14277        -1.13748
C         21.97192        33.86133        -0.89692
C         23.29915        36.08000        -0.95853
C         22.04538        35.32623        -1.34853
C         23.19886        37.41194        -0.30429
C         22.03919        38.25502        -0.63556
C         22.85330        39.95197         1.03774
C         21.86894        39.56010        -0.02856
C         22.86551        41.46954         1.28495
C         21.70286        42.30624         0.89421
C         22.96858        44.42455         1.34087
C         21.74561        43.71440         1.06817
C         22.99212        45.81056         1.42043
C         21.78789        46.58582         1.35837
C         23.01830        48.76350         1.93057
C         21.82435        47.99323         1.37548
C         23.10303        50.21199         1.46548
C         21.97015        50.92264         1.14958
C         23.18805        53.09750         1.11390
C         21.97442        52.38432         1.01508
C         23.23206        54.50565         0.98806
C         22.02492        55.23003         0.98028
C         23.32863        57.35060         0.64276
C         22.06503        56.72036         1.17493
C         23.33571        58.71793         0.32455
C         22.09737        59.46198         0.25580
C         23.36686        61.47659        -0.30018
C         22.14042        60.82923        -0.05561
C         24.33594         4.31106         1.03395
C         25.73860         6.33268         1.42259
C         24.53557         5.63637         1.55228
C         25.87863         7.70716         1.79845
C         24.64157         8.41093         2.29905
C         25.76594        10.74278         2.56563
C         24.56426         9.90479         2.58591
C         25.87581        12.03304         2.02767
C         24.56618        12.80077         1.96425
C         25.86350        14.74420         1.01587
C         24.61271        13.98307         1.02012
C         25.76816        16.16819         0.68250
C         24.50062        16.81725         0.23903
C         25.79527        18.82187        -0.51040
C         24.53419        18.16475        -0.26901
C         25.80938        20.15161        -1.02004
C         24.58098        20.78278        -1.37387
C         25.81423        22.91314        -1.88978
C         24.72699        22.05803        -2.02905
C         25.72314        24.37303        -2.24328
C         24.41295        25.18215        -2.16687
C         25.73825        27.33407        -1.82360
C         24.46849        26.66189        -1.96817
C         25.75559        28.72324        -1.50714
C         24.55150        29.52322        -1.77824
C         25.74926        31.57585        -1.01554
C         24.42650        30.87042        -1.09848
C         25.74433        33.04251        -0.91531
C         24.44736        33.76730        -0.86455
C         25.51937        35.77982         0.28621
C         24.50678        35.24977        -0.67619
C         25.54640        37.24058         0.55132
C         24.29871        37.98621         0.35883
C         25.41598        40.04920         1.10148
C         24.22383        39.34370         0.80802
C         25.45159        41.44528         1.25103
C         24.20215        42.17567         1.49539
C         25.53656        44.38303         1.35909
C         24.23506        43.67073         1.52889
C         25.44965        45.83133         0.88722
C         24.29177        46.51776         1.59511
C         25.71120        48.71332         1.78378
C         24.34658        47.98573         1.85731
C         25.66159        50.16053         1.35919
C         24.41283        50.89818         1.62640
C         25.70969        53.03755         1.02952
C         24.44390        52.39315         1.40996
C         25.71433        54.45243         0.81715
C         24.51145        55.19122         0.86273
C         25.77959        57.25948         0.33299
C         24.53011        56.59932         0.62673
C         25.77677        58.64770         0.05818
C         24.57954        59.38085         0.03037
C         24.56046        60.77766        -0.26788
C         27.10438         8.30814         1.48579
C         28.35200        10.54618         1.30520
C         27.52995         9.62412         1.87856
C         28.43768        11.95229         1.90724
C         27.10004        12.69252         1.73988
C         28.31050        14.69221         0.86552
C         27.08792        14.06474         1.26105
C         28.26620        15.99663         0.20412
C         27.07560        16.86859         0.36298
C         28.27842        18.80814        -0.60120
C         27.05058        18.16910        -0.32035
C         28.27812        20.19791        -0.96072
C         27.04048        20.87666        -1.16743
C         28.27540        22.97538        -1.53117
C         27.04318        22.27661        -1.48203
C         28.29736        24.42374        -1.87373
C         27.01185        25.16994        -2.16387
C         28.19064        27.30000        -1.52922
C         26.98694        26.62259        -1.83341
C         28.18113        28.67989        -1.11225
C         26.93082        29.38475        -1.06797
C         28.04763        31.45289        -0.14996
C         26.87712        30.81223        -0.77435
C         28.09711        32.87984         0.09068
C         26.95090        33.70823        -0.28471
C         27.96863        35.61156         1.09283
C         26.75052        34.96464         0.50571
C         27.94016        37.10142         1.35274
C         26.69299        37.84987         1.00727
C         28.01943        40.05621         1.31453
C         26.68469        39.29893         1.27581
C         28.00423        41.49770         0.98546
C         26.67412        42.17094         0.70132
C         27.90506        44.34222         0.68798
C         26.75799        43.64360         1.00304
C         27.94891        45.78607         0.67995
C         26.78096        46.54386         0.97114
C         27.98728        48.65378         0.71434
C         26.80431        47.94024         1.07598
C         28.07969        50.08711         0.81662
C         26.85339        50.82812         1.05678
C         28.13714        52.95980         0.76105
C         26.87781        52.27956         0.94515
C         28.16274        54.35552         0.58819
C         26.96993        55.12111         0.57213
C         26.97832        56.50945         0.33261
C         29.61284        12.68098         1.32935
C         30.79379        14.67887         0.55602
C         29.57156        13.99693         0.89490
C         30.83203        16.01159         0.14405
C         29.56534        16.68333        -0.20884
C         30.75926        18.82536        -0.50325
C         29.54189        18.14099        -0.41228
C         30.77729        20.22378        -0.84876
C         29.50629        20.90046        -1.06006
C         30.76505        23.02269        -1.23904
C         29.47876        22.29185        -1.30349
C         30.76355        24.49901        -1.31610
C         29.48533        25.21258        -1.51789
C         30.72361        27.30627        -1.27189
C         29.46542        26.59255        -1.49365
C         30.69040        28.70454        -0.97071
C         29.41120        29.34849        -0.83921
C         30.57839        31.53352        -0.26108
C         29.37869        30.66765        -0.21953
C         30.56523        32.86313         0.36338
C         29.27874        33.53847         0.54473
C         30.48000        35.68455         0.80424
C         29.24378        34.89139         0.90952
C         30.47488        37.16955         0.94407
C         29.26636        37.86949         1.54865
C         30.52278        40.02249         1.14226
C         29.24305        39.30110         1.07807
C         30.48653        41.51992         0.96468
C         29.16736        42.16465         0.74054
C         30.44771        44.34504         0.16844
C         29.13399        43.59491         0.32492
C         30.44209        45.82430         0.25628
C         29.16972        46.47048         0.35919
C         30.89380        48.88031         0.41584
C         29.04175        47.87498         0.17816
C         30.63198        50.15193         0.93872
C         29.34394        50.79370         0.80525
C         29.33223        52.20277         0.80958
C         32.02618        16.75650         0.04266
C         33.22794        18.84443        -0.42307
C         32.02055        18.12918        -0.30393
C         33.24692        20.21724        -0.77397
C         31.99658        20.88465        -1.01716
C         33.27107        23.06755        -1.30699
C         32.02029        22.27112        -1.61844
C         33.26681        24.45663        -1.37212
C         32.01375        25.20530        -1.78208
C         33.17874        27.31745        -1.04833
C         31.96601        26.64505        -1.32582
C         33.15419        28.69790        -0.68074
C         31.90477        29.37636        -0.67153
C         33.09526        31.51213         0.05027
C         31.91420        30.83664        -0.48275
C         33.03994        32.82152         0.45823
C         31.77093        33.50701         0.58424
C         33.02603        35.69503         1.05984
C         31.74829        34.92639         0.99569
C         32.99302        37.14569         0.69545
C         31.76949        37.92393         0.95100
C         33.04213        40.05373         0.71809
C         31.80243        39.29619         0.92383
C         32.97361        41.48457         0.57172
C         31.73810        42.21361         0.57493
C         32.94073        44.33143         0.29532
C         31.71373        43.59206         0.35238
C         32.90008        45.75039         0.34809
C         31.70766        46.51069         0.39165
C         31.85259        47.90662         0.72338
C         34.45859        20.94385        -0.85259
C         35.70018        23.08196        -0.95356
C         34.49344        22.35736        -1.04179
C         35.71306        24.49664        -1.01022
C         34.46979        25.19406        -1.16219
C         35.64197        27.34490        -0.88223
C         34.43811        26.62021        -1.05534
C         35.61691        28.75627        -0.62758
C         34.37527        29.38237        -0.40013
C         35.56558        31.54756         0.06244
C         34.34203        30.70667         0.31783
C         35.56826        32.88891         0.39786
C         34.30387        33.47630         0.99986
C         35.48188        35.68778         0.97958
C         34.28157        34.97319         0.86238
C         35.48169        37.10764         1.00323
C         34.31640        37.90196         0.59746
C         35.47963        40.12057         0.23450
C         34.28951        39.39112         0.59005
C         35.40127        41.50871         0.13306
C         34.18400        42.21438         0.32713
C         34.15720        43.62556         0.25871
C         36.91657        25.24856        -0.90062
C         38.10187        27.41729        -0.72309
C         36.90067        26.65098        -0.85944
C         38.11478        28.81148        -0.67962
C         36.84938        29.51936        -0.62026
C         37.80579        31.82463        -0.78165
C         36.74735        30.93104        -0.45087
C         37.97452        33.11144        -0.26294
C         36.78832        33.67503         0.36272
C         38.49235        36.16039        -0.01293
C         36.73372        34.97503         0.87855
C         38.24025        37.46602        -0.39839
C         37.22957        38.29571         0.22291
C         36.71864        39.48089        -0.23100
C         39.41259        29.47216        -0.49240
C         40.72503        31.69605        -0.62765
C         39.66972        30.74796        -0.91516
C         40.49704        33.04835        -0.64894
C         39.24837        33.80582        -0.52124
C         39.38785        35.19681        -0.59382
O         23.38538        41.70343         2.63478
O         21.80132        38.18872        -2.11638
O         19.31195        34.58057        -0.02623
O         17.23222        47.81854        -0.67549
O         36.62498        37.75215         1.40340
O         19.64751        39.47395        -2.24733
O         24.45207        47.00762         2.96885
O         22.88677        31.59421        -2.98705
O         28.60209        30.70416         1.00535
O         19.32120        51.76551        -0.60372
O         12.49067        28.90716        -2.80775
O         32.34322        35.26276         2.31201
O         24.58188         8.94579         3.67999
O         24.40625        35.98467        -1.93162
O         25.15535        45.83750        -0.48230
O         14.41636        25.92090         1.46629
O         31.22613        31.54566        -1.57186
O         22.19408        21.92212         0.16453
O         24.06455        29.34364        -3.12197
O         16.39240        21.64648        -1.48247
O         10.88145        35.35603         0.72684
O         18.16119        19.24257         1.76005
O         24.06806        13.84852        -0.32399
O         14.54400        23.40995         2.18025
O         16.60845        44.83799        -1.49179
O         18.47359        20.27901        -1.87919
O         22.31557         5.60590         2.46339
O         33.62877        37.34263        -0.59779
O         37.88794        35.68946         1.17831
O         15.10495        40.47943        -2.54347
O         25.01223        44.15607         2.69785
O         24.49103        51.82230         2.77358
O          7.92056        32.73172        -2.13408
O         26.86847        10.06996         3.07491
O          9.72515        28.75536        -2.18207
O         26.73672        33.76465        -1.73350
O         30.59944        40.94768         2.31595
O         38.69359        31.34368        -1.74640
O         12.18622        38.08075        -2.25683
O         24.96074        24.71739        -3.43882
O         12.64525        41.50949        -2.09683
O         10.50244        32.71312        -2.83547
O         21.49013        35.61676        -2.64647
O         30.89372        23.82795        -0.01346
O         29.66351        43.85055        -1.00625
O         18.62339        13.91749         0.07038
O         23.44330        10.91951         0.68374
O         15.91464        31.75736         0.00646
O         29.98312        48.49671        -0.61441
O         25.63814        34.89407         1.45186
O         27.31260        39.65595         2.56550
O         18.21759        43.71514         1.74484
O         21.30833        13.85784        -0.30397
O         16.95337        30.43554        -3.30495
O         18.30773        46.22189         2.31075
O         28.74724        15.95249        -1.18422
O         27.73722        36.13861         2.43834
O         23.67817        22.47388        -2.85307
O         27.89413        24.76943        -3.25878
O         21.71766        12.84677         3.19623
O         17.69736        42.37369        -1.82838
O         18.91318        27.40707         0.04315
O         26.52604        16.95554         1.70574
O         30.33503        36.57396        -0.39297
O         21.13393        49.90687        -0.70964
O         19.96263        39.66358         1.39980
H         20.71656        39.58689         2.04573
O         17.81532        48.86019         2.82540
H         17.89643        47.91435         3.10253
O         13.98018        44.50157        -2.10564
H         14.80075        44.38574        -2.63567
O         34.32832        33.16802         2.44273
H         33.60782        33.70796         2.85056
O         22.42440        39.34250         2.33062
H         22.84841        39.88899         3.03619
O         20.56096        10.57322         4.10765
H         21.26956        11.13558         4.49209
O         15.55597        41.43061         0.96749
H         15.88437        42.17603         1.51548
O         26.46872        42.06086        -0.75633
H         26.87431        42.84182        -1.19332
O         22.68509        48.87888         3.34703
H         23.06130        48.08253         3.79177
O         19.35420        13.56981         3.52343
H         19.48113        12.89830         4.22713
O         29.54218        37.92349         2.96893
H         28.80278        38.42562         3.38435
O         15.39756        28.38826        -3.36281
H         15.55822        29.16092        -3.95140
O         22.11983        56.91692         2.63609
H         22.17342        57.88274         2.79870
O         28.73575        11.87835         3.33177
H         28.13588        11.19793         3.72069
O         24.04739        30.57848         0.28758
H         24.81807        30.19066         0.75464
O         31.96443        25.20993        -3.23558
H         32.73287        25.71824        -3.56827
O         16.49724        24.90945        -2.53271
H         16.44937        23.92894        -2.56292
O         34.32097        30.38595         1.74759
H         34.36030        31.24672         2.23727
O         21.83852        33.89450         0.55261
H         20.88889        34.08604         0.76229
O         26.19839        48.81951         3.16196
H         25.85340        48.02849         3.64194
O         20.86784        19.76232        -2.50697
H         19.96543        19.49512        -2.80033
O         31.96585        22.09078        -3.06479
H         32.76938        21.60220        -3.34027
O         24.38725        13.41165         3.27028
H         24.45642        12.72387         3.96484
O         18.48429        33.48946        -3.39941
H         17.92764        32.85777        -3.90389
O         22.33295        25.39598         0.39850
H         22.24354        24.49950         0.78744
H          4.96558        31.42372        -0.10238
H          5.01990        33.78298         0.11260
H          7.63298        27.24733         0.78473
H          6.34546        29.42162         0.60421
H          6.46665        35.69148         1.01526
H          7.87501        37.73923         1.43838
H         10.13526        23.11242         1.44326
H          8.88018        25.19786         1.08572
H          9.18593        39.87517         1.56944
H         10.32761        42.09925         1.41734
H         12.63400        18.86755         2.06828
H         11.40445        20.99354         1.82014
H         11.27310        44.30358         1.07431
H         12.30275        46.47503         1.01057
H         14.97060        14.57400         2.38973
H         13.86422        16.70159         2.23463
H         13.46459        48.77242         0.97977
H         14.78435        50.98418         1.18996
H         17.38274        10.11907         1.73175
H         16.07632        12.26650         2.09994
H         16.08185        53.07139         1.15173
H         17.38208        55.20764         1.12100
H         19.70770         6.36127         0.52330
H         18.65001         8.14303         1.31702
H         18.63738        57.25481         0.66587
H         19.91987        59.32479         0.22245
H         23.24181         2.84101        -0.01855
H         21.17385         4.08464        -0.31624
H         23.36901        62.55022        -0.53487
H         21.20209        61.39905        -0.11531
H         25.24860         3.73190         0.82106
H         26.61301         5.82394         0.98969
H         26.72948        59.15704        -0.14984
H         25.50984        61.29127        -0.47673
H         27.83222         7.68671         0.94019
H         28.85909        10.33349         0.35449
H         29.12946        54.86314         0.45248
H         27.93211        57.01750         0.12660
H         30.58263        12.16270         1.37300
H         31.74078        14.14869         0.73557
H         31.42434        50.70235         1.46671
H         30.29395        52.73678         0.78129
H         32.98602        16.26266         0.25402
H         34.17980        18.32359        -0.24273
H         33.85818        46.28818         0.40314
H         32.76318        48.20376         1.26378
H         35.40437        20.41635        -0.65813
H         36.64492        22.54015        -0.79832
H         36.29867        42.07862        -0.14841
H         35.10318        44.17885         0.16891
H         37.87578        24.71527        -0.82181
H         39.05923        26.87569        -0.68043
H         38.70702        37.84633        -1.31816
H         37.25096        39.99819        -1.04380
H         40.19307        28.90685         0.03884
H         41.74941        31.33436        -0.44880
H         41.39598        33.68110        -0.55575
H         40.31886        35.58484        -1.03979
