         720
 CSIRO Nanostructure Databank - Neutral Graphene Oxide Data Set
C         22.93047        27.35426        -1.58699
C         22.95911        28.64068        -2.00161
C         22.95696        31.56641        -2.24279
C         22.96502        32.94302        -2.18404
C         22.97597        35.88314        -1.84417
C         22.99548        37.25989        -1.62781
C         22.99596        40.22597        -1.12797
C         23.03457        41.56443        -0.95284
C         23.33113        44.54974        -1.12296
C         23.31106        45.89041        -0.86252
C         25.30791        24.46406        -0.99843
C         24.16067        25.19366        -1.04173
C         25.39294        27.23416        -1.79165
C         24.17975        26.69997        -1.05717
C         25.45381        28.70783        -2.01171
C         24.18638        29.42232        -2.10599
C         25.40251        31.57765        -2.72191
C         24.16261        30.80414        -2.29841
C         25.41820        33.00057        -2.14835
C         24.17681        33.69041        -2.04698
C         25.36828        35.76919        -1.39195
C         24.15753        35.10939        -1.76431
C         25.35524        37.16952        -1.06216
C         24.16472        37.92516        -1.23110
C         25.31371        39.98889        -0.23340
C         24.28111        39.43587        -1.21371
C         25.38723        41.46606        -0.21864
C         24.27255        42.26829        -0.62402
C         25.53068        44.33209         0.08913
C         24.33716        43.68017        -0.59562
C         25.57730        45.86403         0.00214
C         24.21477        46.49781         0.19595
C         25.37232        48.71963         0.36505
C         24.23355        47.99956         0.14547
C         27.85046        22.98372        -0.51230
C         27.82179        24.37558        -0.87212
C         26.61707        25.05957        -1.12666
C         27.95558        27.14447        -1.77754
C         26.65102        26.41667        -1.72482
C         27.94714        28.62213        -2.01387
C         26.65629        29.35006        -2.16754
C         27.98060        31.55555        -2.25078
C         26.70977        30.79960        -2.50457
C         27.93268        33.05334        -2.11324
C         26.61094        33.68809        -1.89852
C         27.78156        35.65008        -0.91032
C         26.59677        35.03383        -1.42343
C         27.56484        36.86258        -0.20488
C         26.52250        37.74842        -0.44894
C         27.86377        39.92027         0.22446
C         26.56593        39.16591         0.04699
C         27.84790        41.31326         0.26640
C         26.63612        42.07720         0.05721
C         28.04490        43.98708        -0.37435
C         26.74272        43.46898        -0.15136
C         28.05333        46.17058        -0.22768
C         26.71747        46.69481         0.01695
C         27.91169        48.80503         0.66474
C         26.64682        48.08010         0.37419
C         27.91634        50.13420         1.33466
C         30.28808        22.99338        -0.32122
C         29.02055        22.33156        -0.22742
C         30.27713        24.36612        -0.74705
C         29.09565        25.06260        -0.93813
C         30.37861        27.29302        -1.13666
C         29.06186        26.58143        -0.89833
C         30.41394        28.64165        -1.35499
C         29.12794        29.38370        -1.48428
C         30.44692        31.56638        -1.59010
C         29.15009        30.86355        -1.60883
C         30.44616        32.98237        -1.53881
C         29.18607        33.76795        -1.70307
C         30.32199        35.85579        -1.01499
C         29.11705        35.13048        -1.09694
C         30.48314        37.24638        -0.60685
C         29.41348        37.94335         0.09146
C         30.31093        40.15050        -0.42125
C         29.16916        39.29138         0.05012
C         30.38980        41.43378         0.36557
C         29.08294        42.09044         0.74184
C         30.47455        44.29085         0.13538
C         29.16707        43.50925         0.22078
C         30.42320        45.78612         0.52540
C         29.20627        46.57134         0.42031
C         30.33371        48.55852         1.62435
C         29.19990        48.00935         0.78123
C         30.38726        50.08407         1.40449
C         29.07691        50.76402         1.60437
C         32.61922        20.67362         1.44399
C         31.47831        21.23610         0.96564
C         32.79402        22.95118        -0.24137
C         31.50148        22.40066         0.12124
C         32.81224        24.26061        -0.96176
C         31.58009        25.08051        -0.68108
C         32.94117        27.22914        -1.09352
C         31.62237        26.55691        -0.83345
C         32.87560        28.67331        -1.44452
C         31.68222        29.37032        -1.46322
C         32.88445        31.54548        -1.61832
C         31.68379        30.83414        -1.57520
C         32.90331        33.01828        -1.92518
C         31.63319        33.69799        -1.47353
C         32.85427        35.90688        -1.68830
C         31.55171        35.17091        -1.52546
C         32.82557        37.45063        -1.63776
C         31.62693        38.00141        -0.88200
C         32.79206        40.11867        -0.32849
C         31.62857        39.40679        -0.50875
C         32.82707        41.32673         0.58512
C         31.54462        42.10206         0.57807
C         32.86750        44.23829         0.91925
C         31.52314        43.55922         0.99114
C         32.87703        45.67503         1.03182
C         31.59920        46.40766         0.94260
C         32.81773        48.46814         1.53304
C         31.63345        47.82630         1.30660
C         32.77668        49.83713         2.12522
C         31.71657        50.77089         1.64405
C         33.09482        52.63779         2.56941
C         31.91100        52.17597         1.99756
C         35.07416        20.42558         3.25355
C         35.19566        20.96969         1.89580
C         33.93267        21.15104         1.00423
C         35.29466        22.67381        -0.52377
C         33.96753        22.31654         0.10719
C         35.35869        24.08088        -1.13155
C         34.10763        24.87957        -1.41766
C         35.38624        27.21646        -1.83005
C         34.18491        26.41717        -1.40162
C         35.41619        28.60532        -1.58587
C         34.14755        29.35447        -1.72073
C         35.42263        31.58984        -1.44358
C         34.16965        30.86084        -1.77548
C         35.41419        32.96863        -1.33499
C         34.17458        33.74617        -1.52535
C         35.31684        35.88005        -1.12635
C         34.11601        35.13031        -1.45019
C         35.32321        37.27619        -0.86100
C         34.13659        38.10454        -1.16396
C         35.28143        40.09236         0.02381
C         34.09453        39.49187        -0.59252
C         35.31560        41.42912         0.40758
C         34.08421        42.15101         0.53954
C         35.31194        44.18006         1.45034
C         34.06620        43.50373         0.90207
C         35.40455        45.62546         0.95058
C         34.08470        46.34758         1.14575
C         35.27774        48.30619         2.08069
C         34.15083        47.84907         1.16802
C         35.08753        49.38457         2.88160
C         33.98318        50.37082         2.82758
C         35.46234        52.51315         3.59864
C         34.20134        51.84627         2.93086
C         35.49323        54.01309         3.36205
C         37.33656        21.19555         3.81786
C         36.07016        20.58221         4.16172
C         37.51747        21.72571         2.50511
C         36.39311        21.79319         1.58433
C         37.80799        22.94426        -0.07322
C         36.49305        22.45152         0.38198
C         37.90962        24.03196        -1.16731
C         36.56361        24.44224        -1.65534
C         37.85291        27.17564        -1.80258
C         36.61502        26.61580        -2.12862
C         37.84505        28.54054        -1.43502
C         36.64085        29.29040        -1.47024
C         37.93005        31.43186        -0.79666
C         36.61967        30.75155        -1.12520
C         38.01402        32.94110        -0.76891
C         36.67217        33.71794        -1.00235
C         37.68601        36.00664        -1.06302
C         36.55018        35.20081        -1.15454
C         37.71231        37.24510        -0.42517
C         36.47620        37.89937        -0.32877
C         37.75877        40.04098        -0.26387
C         36.51361        39.28596         0.26466
C         37.79587        41.45919         0.26518
C         36.59483        42.07282         0.63521
C         37.92308        44.18529         1.12026
C         36.62284        43.42668         1.20876
C         37.92424        45.66302         1.28079
C         36.63459        46.32738         1.51206
C         37.84902        48.40688         1.93507
C         36.57377        47.59816         2.02214
C         37.91382        49.87079         2.20807
C         36.92823        50.55486         3.05896
C         37.98430        52.68078         2.75706
C         36.77097        51.89493         3.09785
C         37.89468        54.16866         2.66906
C         36.53175        54.72959         2.89605
C         39.44131        19.95688         6.60866
C         38.38748        20.63482         6.06954
C         39.64223        21.77144         4.27931
C         38.41761        21.24425         4.74345
C         39.92467        22.01573         2.92257
C         38.79902        22.14425         2.06150
C         40.18988        23.36893         0.43280
C         38.96657        22.80463         0.79627
C         40.25268        24.49687        -0.47738
C         39.08573        24.93895        -1.13901
C         40.40706        27.03446        -1.86225
C         39.09472        26.30200        -1.78445
C         40.31008        28.53391        -1.84581
C         39.15066        29.18874        -1.18709
C         40.47267        31.37392        -1.31243
C         39.21920        30.65949        -0.96032
C         40.62623        32.67388        -0.86174
C         39.42711        33.47059        -0.66794
C         40.40476        35.70100         0.10705
C         39.57010        34.86215        -0.66339
C         40.27205        37.10114         0.16717
C         38.94038        37.81180         0.25822
C         40.25328        39.94142        -0.06856
C         39.04801        39.29597         0.01993
C         40.25585        41.42350        -0.20487
C         39.03347        42.15144         0.22474
C         40.34406        44.23079         0.52782
C         39.12914        43.52566         0.56613
C         40.44464        45.56847         1.23519
C         39.12795        46.30702         1.35381
C         40.50751        48.48980         1.82033
C         39.17995        47.64398         2.04905
C         40.21992        49.86373         1.17240
C         39.15776        50.62653         1.95188
C         40.43577        52.75276         2.16790
C         39.15402        51.96635         2.17451
C         40.30688        54.22762         1.91231
C         38.95091        54.89402         1.81736
C         40.21571        57.04457         2.08369
C         39.03757        56.37533         2.07585
C         41.34831        18.47892         5.92275
C         40.70940        19.73214         5.91760
C         42.21746        20.51390         4.06984
C         41.24032        20.73024         5.06873
C         42.38463        21.45625         2.93775
C         41.26658        22.10361         2.39919
C         42.66742        23.49229         0.95532
C         41.41507        22.67757         0.99139
C         42.61777        24.84574         0.38586
C         41.50529        25.27392        -0.51056
C         42.91931        27.17995        -1.28563
C         41.64195        26.44394        -1.24607
C         43.15560        28.32993        -2.08975
C         41.27546        29.29077        -2.39679
C         42.83976        31.38264        -2.28958
C         41.40831        30.78403        -2.36947
C         42.76404        32.91071        -2.26182
C         41.91974        33.35320        -1.04445
C         43.16770        35.50444        -0.89940
C         42.21961        34.54294        -0.42040
C         43.30311        36.78026        -0.34780
C         41.43848        37.89831         0.38828
C         42.78529        39.90123        -0.54521
C         41.52711        39.25433         0.08906
C         42.87084        41.39785        -0.19819
C         41.57321        42.13643        -0.16484
C         42.77811        44.27388         0.17215
C         41.58536        43.57650         0.19808
C         42.73150        45.77306        -0.02079
C         41.55959        46.44533         0.70470
C         42.77336        48.59426         0.69996
C         41.59117        47.77588         1.00228
C         42.75446        49.95262         0.83881
C         41.48816        50.68523         1.01346
C         42.83233        52.84256         1.44656
C         41.52623        52.14225         1.31741
C         42.79110        54.26305         1.75273
C         41.51351        54.94041         1.85889
C         42.69590        57.09284         1.91270
C         41.48829        56.37756         1.93132
C         42.40555        18.24693         5.04321
C         44.89283        19.68593         3.18875
C         42.80471        19.22724         4.11800
C         44.85530        20.98420         2.54632
C         43.69531        21.70638         2.30828
C         45.08742        23.60630         1.36592
C         43.79142        22.95745         1.53408
C         45.14866        24.92158         0.84374
C         43.90948        25.62575         0.42371
C         45.23626        27.48055        -0.57361
C         44.02435        26.78463        -0.48823
C         45.33244        28.74008        -1.22133
C         44.19111        29.26815        -1.88429
C         45.33692        31.48805        -2.19223
C         44.07651        30.73014        -2.19546
C         45.40574        32.89548        -2.32508
C         44.12659        33.64442        -2.34534
C         45.46202        35.80453        -1.76085
C         44.19697        35.06636        -1.84580
C         45.41981        37.17054        -1.38234
C         44.24856        37.72133        -0.79793
C         45.38425        39.95803        -0.51397
C         44.12843        39.15349        -0.37017
C         45.29424        41.45168        -0.66255
C         44.03312        42.10920        -0.21950
C         45.32320        44.36814        -0.23597
C         44.11209        43.55947         0.24250
C         45.31035        45.77272        -0.08241
C         44.04557        46.44307         0.42332
C         45.30555        48.60755         0.36679
C         43.99156        47.92908         0.07617
C         45.26448        50.01953         0.88493
C         43.97693        50.78380         0.51460
C         45.29575        52.81937         1.57991
C         43.99196        52.17272         1.16122
C         45.26515        54.33685         1.57774
C         43.99451        55.01963         1.72844
C         43.91837        56.43576         1.81347
C         47.27247        19.87910         3.64531
C         46.02951        19.16907         3.74872
C         47.39015        20.96516         2.83176
C         46.20287        21.41974         1.97681
C         47.52679        23.49623         1.36423
C         46.27994        22.89954         1.64487
C         47.58695        24.80898         0.84844
C         46.39548        25.52595         0.60213
C         47.69962        27.33976        -0.56622
C         46.42811        26.99405         0.21545
C         47.75592        28.81817        -0.91867
C         46.59813        29.44359        -1.31466
C         47.90419        31.48121        -1.97236
C         46.62745        30.67968        -2.21276
C         47.92722        32.97254        -2.19475
C         46.61896        33.66879        -2.30708
C         47.87135        35.84871        -2.02630
C         46.65874        35.10136        -2.09991
C         47.81679        37.36058        -2.10539
C         46.60459        37.99116        -1.47279
C         47.84567        40.08922        -1.08210
C         46.59301        39.30363        -1.08480
C         47.85600        41.55870        -0.82188
C         46.53781        42.26752        -0.82671
C         47.76439        44.44293        -0.64033
C         46.53758        43.72569        -0.55055
C         47.74390        45.86090        -0.45845
C         46.50263        46.52559        -0.20205
C         47.74513        48.72955         0.03470
C         46.48860        47.96841         0.08284
C         47.73374        50.10337         0.20602
C         46.47479        50.82128         0.46523
C         47.79112        52.98351         0.98782
C         46.49655        52.27456         0.82586
C         47.72729        54.31256         1.41264
C         46.49220        54.98249         1.60964
C         49.91879        21.18738         3.28224
C         48.73020        21.50834         2.47895
C         50.09962        23.50123         1.60679
C         48.80768        22.77694         1.63677
C         50.16502        24.75256         0.90710
C         48.90213        25.26719         0.23077
C         50.22497        27.32262        -0.45686
C         48.94661        26.82882         0.17421
C         50.26001        28.76725        -0.77246
C         49.05782        29.40820        -1.15926
C         50.42126        31.07176        -2.17986
C         49.13802        30.62713        -1.86267
C         50.42881        33.24574        -2.59829
C         49.16251        33.79718        -2.38577
C         50.36805        35.91156        -2.01660
C         49.13396        35.20001        -2.13752
C         50.36515        37.32936        -1.52632
C         49.08888        38.08208        -1.72976
C         50.28922        40.27232        -1.88573
C         49.08425        39.42644        -1.53446
C         50.32070        41.68523        -1.32199
C         49.09114        42.35049        -1.04477
C         50.25732        44.49032        -0.86983
C         49.03290        43.75106        -0.86042
C         50.20041        45.89485        -0.67088
C         48.98603        46.59366        -0.47750
C         50.16786        48.76868        -0.36639
C         48.98867        48.03526        -0.26479
C         50.22149        50.23965        -0.34873
C         48.90985        50.96566        -0.02439
C         50.25160        52.94151         0.64267
C         48.98285        52.32372         0.56182
C         51.10492        21.81862         3.08845
C         52.55275        23.53257         1.94265
C         51.25239        22.94695         2.19352
C         52.63284        24.64942         0.98499
C         51.38351        25.33019         0.61457
C         52.72719        27.41166         0.07934
C         51.48677        26.59075        -0.16453
C         52.68392        28.89312        -0.11814
C         51.48324        29.46624        -0.77555
C         52.75987        31.57412        -1.30173
C         51.58007        30.67139        -1.49127
C         52.77901        33.04960        -1.63136
C         51.63067        33.84479        -2.17968
C         52.87395        35.94255        -1.58373
C         51.58781        35.22727        -1.93586
C         52.83819        37.36337        -2.13485
C         51.58916        38.13478        -1.88807
C         52.89198        40.23092        -1.70197
C         51.58260        39.48647        -1.83250
C         52.74680        41.74115        -2.00401
C         51.52184        42.39789        -1.36523
C         52.75466        44.52099        -1.09777
C         51.53014        43.81359        -1.08710
C         52.79887        45.94192        -0.72609
C         51.47549        46.62803        -0.53587
C         52.73501        48.85997        -0.66776
C         51.42861        48.10268        -0.70294
C         52.71224        50.21344        -0.09312
C         51.50103        50.91315        -0.00985
C         51.44256        52.27636         0.38969
C         54.99300        23.68080         2.26232
C         53.74980        23.04709         2.47096
C         55.14795        24.84510         1.50560
C         53.99170        25.32721         0.73055
C         55.21053        27.59072         0.51264
C         54.07131        26.70365         0.04709
C         55.22544        28.95502         0.14233
C         53.94700        29.74800        -0.02191
C         55.25246        31.60561        -1.06648
C         54.05644        30.92477        -0.97545
C         55.27181        33.00244        -1.52839
C         54.10721        33.70286        -1.70604
C         55.39327        35.89695        -2.18396
C         54.09096        35.14926        -2.06154
C         55.38680        37.38208        -2.12777
C         54.11850        38.08873        -2.42918
C         55.37816        40.30014        -2.11794
C         54.07674        39.62043        -2.53302
C         55.34196        41.67568        -1.88513
C         54.06264        42.35887        -1.57027
C         55.31562        44.56479        -1.19120
C         54.04261        43.81196        -1.18128
C         55.25721        46.05385        -1.47136
C         54.03370        46.76137        -0.92611
C         55.23671        49.02463        -0.88974
C         54.02240        48.10621        -0.74068
C         55.14230        50.12062         0.15348
C         53.95704        50.70630         0.44804
C         57.62287        24.96086         1.77448
C         56.39064        25.57063         1.41132
C         57.61328        27.67314         1.01536
C         56.40755        26.93982         0.96670
C         57.58456        29.17304         0.91820
C         56.40973        29.72284         0.15419
C         57.70162        31.68233        -0.59152
C         56.48135        31.00894        -0.49742
C         57.83622        32.89374        -1.42743
C         56.57804        33.65415        -1.83386
C         57.78317        35.85542        -1.62018
C         56.64990        35.15231        -1.90943
C         57.74389        37.34762        -1.29246
C         56.54576        38.09912        -1.86622
C         57.86072        40.24600        -1.77218
C         56.57514        39.53174        -1.97264
C         57.87497        41.75730        -1.67695
C         56.58537        42.53371        -1.93899
C         57.75623        44.58032        -0.95501
C         56.50802        43.89118        -1.26138
C         57.75206        45.98254        -0.76769
C         56.57107        46.77894        -1.17351
C         57.75543        48.81267        -0.18578
C         56.56995        48.26228        -0.87668
C         58.81715        25.64011         1.67072
C         60.05852        27.72988         1.16872
C         58.84224        27.02077         1.30345
C         60.06740        29.08214         0.75877
C         58.90402        29.80097         0.57376
C         60.18418        31.87614        -0.06794
C         58.85394        31.29727         0.33522
C         60.30277        32.97628        -0.81758
C         59.13302        33.65472        -1.41114
C         60.23713        35.95555        -0.96067
C         59.09416        35.17023        -1.48404
C         60.23778        37.29187        -1.01232
C         59.07639        38.04238        -1.62016
C         60.02338        40.18767        -0.61021
C         59.01461        39.50312        -1.22147
C         59.97825        41.60664        -0.40955
C         58.96602        42.39411        -0.89941
C         60.09004        44.52646        -0.24390
C         58.93827        43.84002        -0.69202
C         60.07035        45.89416        -0.02683
C         58.90260        46.64442        -0.28532
C         58.86241        48.06077         0.01518
O         48.93494        24.72207        -1.05730
O         53.48114        24.32740        -0.19891
O         43.98453        34.75048        -3.30890
O         31.21657        50.49576         0.28453
O         33.19262        24.26883        -2.38574
O         49.43786        50.89225        -1.39045
O         28.12443        45.14421        -1.16257
O         41.46895        35.01255         0.69389
O         27.67976        31.06954        -3.59130
O         34.88698        20.06855         0.78543
O         32.07339        35.53468        -2.87573
O         42.90098        25.84793         1.46430
O         33.90250        26.91208        -0.03425
O         48.94269        21.44903         1.01715
O         28.74901        33.74893        -3.11804
O         52.23857        46.18919         0.64251
O         48.05139        40.63973         0.31009
O         54.06355        42.71118        -0.13401
O         50.89265        26.53946        -1.50015
O         28.33843        27.67119        -3.06979
O         36.08112        49.72694         3.81280
O         41.24592        51.72208        -0.05172
O         38.82213        35.49881        -1.64914
O         32.80048        49.83537         3.60463
O         38.41691        53.56412         3.89497
O         28.80308        30.21791        -0.31535
O         46.22750        51.86614        -0.53979
O         40.67951        22.01713         5.19856
O         40.84449        41.92358        -1.46814
O         37.08589        30.92961         0.26717
O         36.57977        25.35515        -2.70670
O         51.99803        48.66502        -1.93134
O         28.91404        48.78809        -0.42591
O         44.92753        39.48995         0.80528
O         25.51747        39.38159         1.07077
O         37.19308        33.43971         0.34664
O         58.30713        41.09666        -2.91511
O         34.19412        30.06306        -3.02233
O         38.17622        22.63247        -1.46316
O         39.86224        26.36598        -3.04311
O         25.83445        26.47604        -2.94982
O         53.30839        37.48639        -3.51089
O         50.54070        32.00357        -3.20656
O         42.56902        37.18073         0.76762
O         57.30313        32.82437        -2.79133
O         59.43802        34.34280        -2.65098
O         45.71083        41.90700        -1.99968
O         52.44283        32.59842        -0.26403
O         37.50147        43.52580         2.38984
O         42.26612        28.62713        -3.12415
O         34.44610        39.24849        -2.03851
O         43.76537        18.84663         3.19520
O         56.90174        47.75726        -2.21830
O         52.46152        28.28427         1.22031
O         28.50100        37.15430         0.79209
O         39.41904        29.70075         0.16095
O         54.64442        35.40309        -3.37002
O         37.50358        49.34798         0.86066
O         47.88745        32.34484        -0.79629
O         31.61389        25.93493         0.51737
O         36.54909        39.20354         1.71255
H         37.25229        38.55107         1.97148
O         55.12696        49.67992        -2.17197
H         55.46885        49.04355        -2.84174
O         35.08452        44.22943         2.87760
H         35.95993        44.07781         3.30909
O         53.92548        39.93365        -3.92410
H         53.56042        39.13523        -4.37155
O         58.52122        31.92522         1.61839
H         57.86938        31.32902         2.07216
O         40.84893        45.25951         2.63692
H         41.82212        45.38601         2.69765
O         47.61056        26.72456        -1.85943
H         48.12936        25.85847        -1.85277
O         32.61096        37.86854        -3.00568
H         33.10135        38.71531        -3.13298
O         39.74866        49.58405        -0.15616
H         39.74360        50.43290        -0.65115
O         42.57118        45.94468        -1.44661
H         41.75689        45.47576        -1.72343
O         34.49306        48.28272        -0.19480
H         33.67874        48.22910        -0.73954
O         53.83714        30.44670         1.26285
H         53.37675        29.83639         1.88391
O         53.00502        36.02484        -0.14674
H         52.13388        36.33552         0.21009
O         43.83643        48.09281        -1.35592
H         43.88171        49.06364        -1.53926
O         32.87575        33.05531        -3.39987
H         32.58155        33.96926        -3.65027
O         28.67328        26.90782         0.46997
H         29.42220        26.64723         1.05165
O         44.38230        43.47036         1.70967
H         43.78697        42.78713         2.08818
O         31.11825        43.70009         2.37185
H         31.67964        43.10820         2.91521
O         57.61201        37.43176         0.15573
H         56.74636        37.05237         0.41643
O         52.58500        41.98789        -3.40954
H         51.75213        41.54535        -3.70189
O         53.24837        40.06740        -0.30379
H         53.34047        40.94942         0.12549
O         40.77420        31.13082        -3.63603
H         41.02891        32.05728        -3.87516
O         42.54501        39.82339        -1.97325
H         41.85773        40.50312        -2.18877
O         41.09960        48.78256         3.09852
H         40.54660        48.32557         3.78243
O         30.93190        44.23805        -1.24015
H         30.23805        44.66412        -1.79109
O         41.98035        33.36693        -3.40084
H         42.44677        34.15794        -3.77537
O         39.17249        47.26893         3.46718
H         39.67880        46.41793         3.53579
O         41.63269        21.53675         0.09668
H         40.77273        21.08520        -0.03873
O         38.65009        37.61504         1.71813
H         39.43474        37.92571         2.22015
O         32.86988        40.73293         1.94706
H         33.78026        40.39456         2.10006
O         38.46723        54.71883         0.43910
H         39.10768        55.15683        -0.16077
O         44.09360        46.33855         1.87346
H         44.32897        45.40209         2.08986
O         25.24397        31.74860        -4.15649
H         26.15311        31.77943        -4.53867
O         29.99438        40.57113        -1.78502
H         30.72673        41.13889        -2.10637
O         40.95661        52.62855         3.53551
H         40.25730        53.00647         4.12397
O         50.10544        40.52812        -3.33757
H         49.86154        39.68016        -3.77096
O         54.35999        26.46188        -1.35557
H         53.96465        25.58574        -1.58218
O         47.70457        37.63174        -3.55849
H         46.86874        37.22073        -3.87018
O         49.01089        27.32254         1.51714
H         48.09646        27.51970         1.84270
O         56.62453        42.94857        -3.34975
H         57.10648        42.23161        -3.83140
O         55.04771        46.08042        -2.91564
H         55.82897        45.66997        -3.34573
O         35.31098        52.28610         5.01323
H         35.39259        51.31853         5.16483
O         59.19802        38.01658        -3.06031
H         59.95435        38.57993        -3.32407
O         46.76577        30.16417        -3.56987
H         46.08155        29.47536        -3.71048
O         46.41467        27.75542         1.46925
H         45.58205        27.53911         1.94176
O         35.61919        45.57656        -0.48835
H         35.56986        46.50703        -0.81050
O         43.92116        50.94578        -0.93107
H         43.06994        51.40309        -1.12535
O         57.30816        29.61733         2.34479
H         57.96981        29.16121         2.91019
O         45.51298        52.46161         2.98299
H         44.69562        52.67347         3.48127
O         50.46633        37.18224        -0.04842
H         50.34427        38.06990         0.35508
O         23.64016        46.18513         1.50831
H         24.07064        45.35547         1.83098
O         30.00790        48.31649         3.01073
H         30.79486        48.53477         3.55655
O         25.29537        44.11192         1.54169
H         25.20445        43.14160         1.67551
O         37.59858        40.10763        -1.70479
H         38.35016        40.61770        -2.07434
O         24.87551        39.76604        -2.51774
H         24.25474        39.47152        -3.21697
O         28.97927        42.10573         2.19252
H         29.02522        41.17951         2.50898
O         35.42449        21.76757        -1.65544
H         34.71761        21.98715        -2.29887
O         24.34332        27.14564         0.33029
H         23.58212        26.80883         0.84731
O         45.30724        49.89856         2.33242
H         44.66806        49.20490         2.60306
O         46.33504        20.71775         0.70485
H         47.25983        20.87409         0.38883
H         21.97811        26.80248        -1.55710
H         22.01793        29.11348        -2.31791
H         21.98904        31.04955        -2.17767
H         22.00089        33.46567        -2.12166
H         22.02773        35.41568        -2.14068
H         22.06119        37.82192        -1.76639
H         22.03172        39.73437        -1.32258
H         22.10087        42.14523        -0.98688
H         22.56627        44.12216        -1.78984
H         22.58272        46.53613        -1.37645
H         25.23233        23.37574        -0.85501
H         23.18868        24.68698        -0.93695
H         25.31871        49.81333         0.46978
H         23.26169        48.51254         0.09817
H         26.90649        22.42492        -0.45544
H         26.95713        50.62838         1.54738
H         28.98281        21.26909         0.04956
H         29.07002        51.77850         2.03105
H         32.57213        19.78501         2.08815
H         30.50920        20.82043         1.27337
H         33.15938        53.72582         2.70835
H         31.13966        52.90183         1.70548
H         34.15919        19.88200         3.52712
H         34.58203        54.56951         3.62840
H         35.94410        20.17540         5.17479
H         36.40221        55.81553         2.76338
H         39.27852        19.40646         7.54915
H         37.42819        20.61337         6.60954
H         40.22251        58.13646         2.22348
H         38.09545        56.93374         2.17905
H         40.98403        17.67449         6.57644
H         42.67206        58.19013         1.98112
H         42.89350        17.26451         5.01091
H         44.83872        57.03433         1.79385
H         48.14421        19.46895         4.17443
H         46.00563        18.18692         4.23664
H         48.64737        54.90618         1.50706
H         46.53716        56.06797         1.78025
H         49.84479        20.41752         4.06298
H         50.31206        53.98631         0.97792
H         51.97202        21.50457         3.68603
H         52.38342        52.82961         0.51535
H         55.86209        23.26925         2.79501
H         53.73902        22.16770         3.12934
H         56.05752        50.53909         0.59355
H         53.93579        51.56927         1.13004
H         57.63229        23.90800         2.08760
H         57.76507        49.86947         0.11343
H         59.76513        25.12959         1.89278
H         61.01035        27.20924         1.34047
H         61.04681        29.55094         0.59111
H         61.09293        31.42814         0.35652
H         61.29796        33.37334        -1.06429
H         61.11121        35.41531        -0.56965
H         61.12389        37.84049        -0.66293
H         60.90577        39.66246        -0.22078
H         60.79801        42.05529         0.16738
H         61.02151        43.97436        -0.06210
H         60.97160        46.40763         0.33669
H         59.75440        48.51077         0.47553
