         320
 CSIRO Nanostructure Databank - Neutral Graphene Oxide Data Set
C         30.38046        31.47311        -0.13290
C         30.57571        32.65802        -0.44543
C         30.40416        35.89463        -1.14501
C         30.48881        37.13074        -1.17226
C         30.42073        40.31492        -0.87991
C         30.22906        41.54608        -0.73652
C         32.96750        28.91038        -0.11379
C         31.78151        29.29004         0.18634
C         32.99871        31.54161        -1.11009
C         31.13641        30.32294        -0.49948
C         32.90915        32.89437        -1.01323
C         31.52270        33.59141        -1.16027
C         32.82626        35.81425        -0.93228
C         31.49288        35.00215        -0.57144
C         32.79566        37.28577        -0.46187
C         31.53727        38.05764        -0.89713
C         32.72473        40.17044        -0.18452
C         31.49805        39.40007        -0.71559
C         32.75030        41.63669        -0.73105
C         31.41513        42.37345        -1.03104
C         32.67482        44.45221        -0.58823
C         31.65109        43.79333        -0.80975
C         35.44921        27.30334         0.45450
C         35.43630        28.68411         0.06816
C         34.27798        29.38196        -0.27292
C         35.04746        31.69108         0.22691
C         34.31056        30.83509        -0.78508
C         35.31543        33.01249        -0.10703
C         34.23869        33.69537        -0.95105
C         35.33838        35.89611        -0.35241
C         34.04492        35.08341        -0.30717
C         35.32818        37.25140        -0.53800
C         34.06402        38.02693        -0.93694
C         35.31731        40.23827        -0.56729
C         34.04022        39.46267        -0.44277
C         35.18948        41.64478         0.08565
C         34.06153        42.45337        -0.60834
C         35.20384        44.71446        -0.37226
C         33.95225        43.92461         0.03979
C         35.39254        46.03157         0.43042
C         37.63961        27.12576         1.59044
C         36.31647        26.67740         1.07308
C         37.69566        28.64090         1.16350
C         36.77057        29.26376         0.35893
C         37.76852        31.55522         0.87662
C         37.17510        30.62661        -0.16115
C         37.68243        33.07483         0.84118
C         36.49136        33.77355         0.24155
C         37.77997        35.91397         0.23933
C         36.55031        35.15353         0.02388
C         37.80304        37.25605        -0.05870
C         36.63114        38.02206        -0.61518
C         37.78323        40.24129         0.02547
C         36.50776        39.43113         0.06644
C         37.79889        41.72062        -0.30788
C         36.50829        42.44701         0.08972
C         37.84457        44.65522        -0.31194
C         36.51491        43.94229        -0.07504
C         37.83965        46.18950        -0.04372
C         36.49605        46.58484         0.35619
C         40.08909        24.40930         0.60747
C         39.07190        25.04864         0.91026
C         40.23016        27.14398         1.24001
C         38.81907        26.50357         0.78331
C         40.23149        28.68335         0.91207
C         38.99779        29.31565         1.59396
C         40.24862        31.57611         1.67766
C         38.94878        30.84085         1.48477
C         40.23539        33.08301         1.52749
C         38.94761        33.83891         1.17370
C         40.23594        35.88213         0.62214
C         39.02876        35.24882         0.69117
C         40.31408        37.29018         0.06727
C         39.00893        38.05715         0.37165
C         40.28879        40.25257         0.39680
C         39.07063        39.49364        -0.21570
C         40.34723        41.71022        -0.15239
C         39.05358        42.44985         0.26146
C         40.33122        44.59149         0.01605
C         39.12599        43.92850        -0.11114
C         40.34831        46.05759         0.25796
C         39.07786        46.81290         0.35811
C         40.35372        48.89053         0.65789
C         39.32780        48.15637         0.63727
C         42.65110        24.47300         0.01644
C         41.49889        24.85779         0.88687
C         42.71910        27.12867         0.94913
C         41.43733        26.43397         0.66960
C         42.76423        28.61614         1.24994
C         41.51559        29.43641         1.29264
C         42.80886        31.58954         1.52294
C         41.52509        30.79313         1.48914
C         42.79432        32.99823         1.15774
C         41.56713        33.85020         1.44614
C         42.81343        35.87900         0.72690
C         41.52983        35.08952         0.54608
C         42.80960        37.28269         0.31296
C         41.53561        38.04100         0.64716
C         42.81515        40.25751         0.70529
C         41.60568        39.50134         0.10721
C         42.80657        41.72734         0.29751
C         41.64480        42.43658         0.20446
C         42.82882        44.59026        -0.09565
C         41.64031        43.90181         0.04107
C         42.88481        46.09756        -0.37557
C         41.62436        46.84569         0.06930
C         42.90782        48.88555         0.30503
C         41.55905        48.43621        -0.17106
C         43.67651        25.14874        -0.05188
C         44.54387        27.44024        -0.72496
C         44.08067        26.51411         0.39959
C         44.89489        28.86598        -0.14838
C         44.16179        29.28914         1.14628
C         45.33973        31.54198         0.83531
C         44.14721        30.81956         1.27837
C         45.37449        32.95507         0.83356
C         44.04846        33.69352         0.63612
C         45.35718        35.94734         0.70032
C         44.09594        35.20198         1.13346
C         45.35841        37.27710         0.41174
C         44.09964        38.04698         0.22592
C         45.30758        40.20594         0.58993
C         44.12274        39.52704         0.42802
C         45.26756        41.71629         0.82297
C         44.15270        42.31979        -0.06038
C         45.45874        44.60247        -0.04481
C         44.14204        43.86054        -0.16971
C         45.46203        46.21222        -0.06877
C         44.13803        46.69035         0.49234
C         43.88675        48.15230         0.43894
C         46.90824        27.55909        -1.51425
C         45.80714        27.02883        -1.40013
C         47.24884        29.02513        -1.50240
C         46.15115        29.60774        -0.51402
C         47.81001        31.49575         0.16203
C         46.55970        30.68166         0.50818
C         47.84435        32.97557         0.39865
C         46.56366        33.67510         0.62163
C         47.76911        35.89044         0.08845
C         46.65652        35.16980         0.89537
C         47.83732        37.35890         0.56516
C         46.59335        38.07969         0.04323
C         47.77818        40.18051         0.71804
C         46.57640        39.51594         0.53228
C         47.77491        41.63703         0.84835
C         46.62223        42.36525         0.65729
C         47.72339        44.52138         1.35224
C         46.76738        43.84049         0.32673
C         47.60347        45.96438         1.13605
C         46.64129        46.61668         0.74287
C         49.82623        29.09850        -1.91621
C         48.65645        29.38638        -1.02317
C         50.18648        31.52903        -0.69278
C         48.78061        30.96639        -0.89411
C         50.13076        33.00650        -0.80950
C         49.09051        33.73435        -0.00589
C         50.25855        36.00153        -0.58995
C         49.12924        35.22020         0.03206
C         50.42520        37.39260         0.02356
C         49.09744        38.13695         0.26079
C         50.35525        40.23877         0.67168
C         49.06964        39.48105         0.55253
C         50.41334        41.73703         1.04473
C         48.99875        42.19729         1.55951
C         50.26063        44.33601         1.55977
C         48.93043        43.77119         1.77473
C         50.93787        29.63214        -1.98012
C         52.42551        31.70636        -1.61441
C         51.47328        30.69920        -1.04893
C         52.39551        32.93836        -1.56397
C         51.27309        33.85650        -1.35169
C         51.62191        38.07857        -3.37587
C         51.37311        35.29384        -0.99837
C         51.46112        38.21826        -2.13198
C         51.27048        38.36154        -0.78403
C         52.38286        40.71821        -0.58215
C         51.59908        39.59632        -0.08408
C         52.34763        41.94138        -0.38311
C         51.10258        42.70982        -0.03529
C         51.11356        44.02209         0.71292
O         32.22246        41.80756        -2.09114
O         48.34005        31.99049         1.41269
O         43.41249        37.57411        -1.00471
O         50.16645        33.52429        -2.21847
O         49.59260        34.44876         1.18996
O         44.88427        29.89606        -1.18926
O         47.90896        44.11526         2.71930
O         41.26710        46.43962         1.40055
O         37.75765        31.16429         2.28220
O         31.94667        30.75238        -1.63220
O         44.95511        44.21819        -1.35628
O         36.54449        43.32352         1.24929
O         37.34030        30.86240        -1.34557
O         37.91973        33.63439         2.17927
O         43.72117        31.21556         2.63291
O         42.80803        27.61736         2.34967
O         40.19232        32.43873         2.84798
O         48.84692        41.61107         2.80401
O         51.42526        39.54244         1.33704
O         37.84562        45.61975        -1.39156
O         32.77348        37.30197         0.98734
H         32.70127        38.24573         1.28796
O         45.06981        26.45412         1.38484
H         44.71406        26.00718         2.17927
O         46.96911        35.09819         2.30182
H         46.11328        35.07776         2.79619
O         38.85825        38.13139         1.81147
H         37.98496        38.56028         1.99300
O         45.62064        46.64558        -1.40302
H         46.51627        46.39080        -1.70797
O         48.87898        28.77236         0.22153
H         49.80348        28.93770         0.50546
O         31.15473        33.63156        -2.52746
H         31.07993        32.71293        -2.86106
O         44.41574        41.79473        -1.38438
H         43.79421        42.21478        -2.01537
O         42.70702        40.29338         2.15992
H         43.44832        40.87165         2.48540
O         46.92424        29.96625         1.70145
H         47.46691        30.57403         2.25529
O         47.29820        35.79690        -1.27129
H         47.84794        36.36756        -1.85017
O         34.68664        33.82722        -2.31410
H         34.98812        32.93586        -2.60972
O         33.80386        34.80791         1.08514
H         33.65721        35.67104         1.53789
O         47.02546        29.55110        -2.78630
H         46.05664        29.57942        -2.94228
O         40.30529        26.92134         2.66996
H         41.19106        27.27690         2.95838
O         43.99750        33.72527        -0.81333
H         43.11171        34.06790        -1.10252
O         39.26741        39.41952        -1.65033
H         38.45766        38.98776        -2.03459
O         46.65242        38.20316        -1.40002
H         45.74391        38.37341        -1.72936
O         44.23728        35.15899         2.58569
H         43.35092        34.91933         2.97161
O         41.82712        24.57652         2.21947
H         41.13181        24.96830         2.79401
O         38.90524        42.46881         1.68866
H         39.76984        42.67648         2.09913
O         52.60208        35.79379        -1.17270
H         52.64405        36.74778        -0.95199
O         44.02608        46.19374         1.80819
H         43.17806        46.50280         2.19823
O         35.23166        31.15706         1.45427
H         35.61670        31.81467         2.07341
O         50.27926        42.83361        -1.15786
H         50.68038        43.45361        -1.80028
O         41.81448        39.44248        -1.31430
H         41.40850        40.25765        -1.71760
O         32.49842        40.20483         1.25824
H         33.27247        40.66896         1.67035
O         32.92807        35.85707        -2.34708
H         33.29636        35.01412        -2.69464
O         40.45893        41.71591        -1.59643
H         39.55340        41.56787        -1.98293
O         51.96218        30.07126         0.11048
H         52.79253        29.59835        -0.10366
O         40.08994        40.31464         1.81052
H         40.97545        40.35796         2.25519
O         41.73196        34.40452         2.79200
H         41.42055        33.71369         3.42621
O         35.16180        45.06608        -1.72129
H         34.27047        45.42236        -1.92660
O         34.85057        41.43518         1.47181
H         34.99249        42.30390         1.93020
O         40.50372        37.11920        -1.35690
H         40.97294        37.93719        -1.68952
O         48.30308        31.55338        -2.11885
H         48.88652        31.26987        -2.85631
O         36.17771        39.12144         1.44682
H         35.87191        39.95579         1.88024
O         47.55798        43.91120        -0.89236
H         47.00136        43.54784        -1.61713
O         47.76303        37.35677         2.00891
H         47.98804        38.25200         2.34068
O         37.72049        26.92221         2.96721
H         38.66077        27.01884         3.26193
O         40.14297        28.89660        -0.50282
H         39.49886        28.24281        -0.88043
O         43.04802        46.30962        -1.76450
H         43.90887        45.91686        -2.04802
O         51.03196        37.16246         1.31359
H         50.48620        36.49603         1.78676
O         51.25792        41.84194         2.17880
H         50.67920        41.62374         2.95625
O         34.51223        42.68722        -1.95337
H         33.69842        42.75961        -2.51585
O         41.47947        38.00485         2.07549
H         40.55586        38.22492         2.35802
O         35.66671        40.38381        -1.97571
H         35.07194        41.08376        -2.35548
O         38.56474        26.79149        -0.59622
H         38.98907        26.09736        -1.14434
O         41.35244        48.69929        -1.51578
H         41.59778        49.62334        -1.72256
O         43.46577        27.58965        -1.62842
H         43.71359        28.26274        -2.29738
O         36.89991        38.21756        -2.04892
H         36.94286        37.32655        -2.45847
O         41.50865        34.63821        -0.85690
H         41.28081        35.44884        -1.39278
O         31.29113        34.89135         0.81051
H         31.39762        35.77963         1.21958
O         33.83832        43.86894         1.43936
H         34.07133        44.75560         1.79791
O         44.87023        41.96928         2.21047
H         45.66603        41.86739         2.77948
O         39.18318        29.11295         3.00960
H         38.50658        29.65457         3.47396
O         34.04164        38.12793        -2.38265
H         34.84888        38.63452        -2.64037
O         44.90495        28.80236         2.26335
H         44.60569        29.29656         3.05617
O         37.86286        41.86716        -1.76290
H         37.17936        41.25028        -2.14400
O         35.03271        30.88033        -2.04445
H         34.58513        30.27812        -2.67567
