         477
 CSIRO Nanostructure Databank - Neutral Graphene Oxide Data Set
C         27.88093        27.25848        -0.26694
C         27.80896        28.68578        -0.28528
C         26.62630        29.36701        -0.05529
C         27.80412        31.51849        -0.01852
C         26.61860        30.77719         0.00802
C         27.69428        33.00248         0.23555
C         26.73490        33.67379        -0.72475
C         27.87824        35.82142        -0.40919
C         26.82160        34.99158        -0.98620
C         27.86025        37.21766        -0.53268
C         26.79652        37.92576        -1.20551
C         28.19173        39.93832        -1.57631
C         26.91565        39.20175        -1.66533
C         28.35086        41.39588        -2.00492
C         27.20590        42.16656        -2.51627
C         28.40149        44.27661        -2.14615
C         27.23238        43.52110        -2.54703
C         28.39826        45.68463        -2.17780
C         30.34339        27.32672        -0.36606
C         29.08128        26.60687        -0.32494
C         30.32227        28.72279        -0.43045
C         29.03974        29.45899        -0.69338
C         30.27929        31.59905        -0.07404
C         29.05685        30.88640        -0.20447
C         30.22798        32.99754         0.22748
C         29.02046        33.71817         0.23303
C         30.13192        35.87957         0.74119
C         28.99025        35.14039         0.18790
C         30.11153        37.40944         0.82024
C         28.94573        38.04934         0.03770
C         30.43204        40.15297        -0.33761
C         29.13619        39.43915        -0.52355
C         30.51790        41.53485        -0.77150
C         29.51434        42.16393        -1.48332
C         30.73554        44.34520        -1.39491
C         29.57379        43.59676        -1.71270
C         30.68897        45.76687        -1.32307
C         29.49822        46.41131        -1.74117
C         32.75658        24.49261         0.11138
C         31.63193        25.16820        -0.23222
C         32.83463        27.30751        -0.17488
C         31.58200        26.60868        -0.23131
C         32.88411        28.75396        -0.49967
C         31.56274        29.50493        -0.58232
C         32.79404        31.63594        -0.29484
C         31.56183        30.95586        -0.30704
C         32.78441        33.12513        -0.23762
C         31.48121        33.77692         0.13542
C         32.72759        35.87103         0.80888
C         31.47061        35.13817         0.75721
C         32.73799        37.28904         0.47256
C         31.43888        38.02548         0.35245
C         32.70723        40.21928         0.82347
C         31.48574        39.51704         0.25718
C         32.70283        41.74989         0.52965
C         31.83236        42.18748        -0.63216
C         33.23779        44.40912        -0.73111
C         31.97370        43.62671        -1.06000
C         33.01977        45.87311        -0.42400
C         31.83432        46.52099        -0.82919
C         32.89952        48.70993        -0.53739
C         31.78442        47.96423        -0.75413
C         35.28469        23.09502         0.90347
C         35.24473        24.43775         0.64574
C         33.94582        25.22540         0.66190
C         35.29630        27.33610        -0.10018
C         34.01240        26.63425         0.10034
C         35.34294        28.81521        -0.03085
C         34.10010        29.53622        -0.20096
C         35.38371        31.65793        -0.32155
C         34.04828        30.92918        -0.24141
C         35.33864        33.11502         0.09278
C         34.09214        33.94454        -0.11955
C         35.27375        35.92626         0.83525
C         33.99756        35.09381         0.96272
C         35.28718        37.24881         0.53138
C         34.01238        38.03427         0.84336
C         35.26386        40.23350         0.75981
C         33.99306        39.50613         0.33534
C         35.26293        41.58877         0.91220
C         34.09408        42.36553         0.48969
C         35.30573        44.50999         0.79547
C         34.18965        43.69430         0.20124
C         35.39231        45.92930         0.27612
C         34.17772        46.60397        -0.06629
C         35.43723        48.85170         0.06542
C         34.19533        48.06434        -0.29951
C         35.42671        50.32806         0.23875
C         37.74422        22.97153         1.07995
C         36.51022        22.38095         1.14661
C         37.81271        24.44514         0.84447
C         36.51095        25.19661         0.69569
C         37.80973        27.35599         0.38278
C         36.57425        26.58260         0.12626
C         37.77356        28.74714         0.43094
C         36.54158        29.46963         0.22845
C         37.80398        31.67538         0.31094
C         36.48411        30.96217         0.50968
C         37.80441        33.04648         0.24438
C         36.51195        33.74298         0.39405
C         37.97180        36.08991        -0.35969
C         36.45490        35.04922         1.13779
C         37.83112        37.32171         0.22669
C         36.51843        38.09362         0.14371
C         37.78814        40.21194         0.90342
C         36.50599        39.38916         1.01524
C         37.77743        41.54401         1.14735
C         36.50056        42.32197         1.41095
C         37.80094        44.44186         0.84919
C         36.60462        43.76225         0.89814
C         37.89254        45.90611         0.42967
C         36.58616        46.62580         0.37897
C         37.85957        48.83363         0.75280
C         36.54531        48.09013         0.77332
C         37.82113        50.30372         0.86995
C         36.54981        50.99564         0.55700
C         40.25145        21.25790         3.30683
C         39.01918        21.56095         2.75748
C         40.19561        22.61641         0.94389
C         38.97479        22.30413         1.55295
C         40.14535        24.50291        -0.06137
C         39.03439        25.15564         0.37176
C         40.24130        27.28459         0.12395
C         39.05560        26.62210         0.37779
C         40.32856        28.72805         0.39170
C         39.04451        29.47030         0.68926
C         40.32831        31.64112         0.25407
C         39.06315        30.99236         0.78537
C         40.30570        33.05036         0.11120
C         39.05894        33.79011         0.09580
C         40.34999        35.86665         0.12538
C         39.10908        35.19198        -0.05917
C         40.32959        37.26724         0.62164
C         38.98897        37.93936         0.97806
C         40.35173        40.12559         1.14518
C         39.06194        39.44083         0.57141
C         40.23502        41.60320         0.86977
C         39.05074        42.31102         1.49176
C         40.25930        44.47746         1.11525
C         39.04042        43.77401         1.10658
C         40.27105        45.93059         1.20043
C         38.93888        46.66061         1.34457
C         40.29084        48.82482         0.95450
C         39.02852        48.13761         0.96519
C         40.38232        50.19845         0.76344
C         39.17224        51.03982         0.87408
C         40.46610        53.02279         0.16387
C         39.29759        52.47381         0.52400
C         42.68279        21.56127         3.46829
C         41.45990        21.79304         2.77923
C         42.66755        23.27619         1.12905
C         41.46235        22.57128         1.57682
C         42.71430        24.38682         0.17796
C         41.46944        25.09189        -0.39877
C         42.68042        27.28049        -0.53727
C         41.54480        26.53436         0.13002
C         42.70261        28.76136        -0.37613
C         41.56121        29.46908         0.01904
C         42.73769        31.61825        -0.31898
C         41.52731        30.91115         0.02026
C         42.74949        33.04561        -0.27917
C         41.54662        33.74888        -0.09477
C         42.80322        35.93435        -0.11802
C         41.56240        35.18664        -0.02254
C         42.64718        37.40885        -0.43440
C         41.58779        38.06591         0.41477
C         42.67474        40.27230         0.05310
C         41.56631        39.53165         0.47403
C         42.72794        41.68335         0.26616
C         41.47144        42.38594         0.50609
C         42.74446        44.44330         0.96010
C         41.49257        43.79797         0.87956
C         42.72546        45.83319         1.45509
C         41.45999        46.59386         1.28194
C         42.74393        48.79353         1.42605
C         41.56716        48.03296         0.85777
C         42.83367        50.20599         0.99147
C         41.66520        50.84759         0.59952
C         42.96306        52.96928         0.43662
C         41.73231        52.22373        -0.01556
C         43.84306        22.09447         2.98013
C         45.12830        23.47844         1.39419
C         43.86212        22.95093         1.83565
C         45.14747        24.39951         0.31256
C         43.92329        25.02192        -0.16475
C         45.16573        27.29224        -0.98969
C         43.93602        26.44710        -0.77660
C         45.10783        28.69232        -1.04371
C         43.90941        29.45799        -0.71278
C         45.13001        31.61795        -1.01645
C         43.90066        30.86179        -0.68277
C         45.22539        32.95482        -0.40636
C         44.01114        33.82754        -0.61923
C         45.21238        36.16567        -0.35713
C         44.02724        35.31175        -0.19953
C         45.15975        37.52742        -0.67329
C         43.91319        38.22609        -0.51016
C         45.04111        40.44108        -0.89899
C         43.87738        39.59628        -0.42099
C         45.13778        41.78673        -0.20109
C         43.96074        42.41262         0.22217
C         45.23706        44.50072         0.78906
C         43.96086        43.81428         0.62882
C         45.28997        45.85537         1.32091
C         44.02343        46.54241         1.66861
C         45.29498        48.75922         1.57080
C         44.01185        48.04654         1.71653
C         45.28183        50.19553         1.42431
C         44.09246        50.89366         1.11220
C         44.06230        52.33324         0.89986
C         47.57340        23.65174         1.56931
C         46.36927        23.10242         1.97952
C         47.63791        24.47738         0.42282
C         46.42494        24.69417        -0.22619
C         47.66480        27.25621        -0.95399
C         46.43060        26.65748        -1.18538
C         47.68042        28.67837        -1.29556
C         46.34730        29.40744        -1.42327
C         47.71038        31.58530        -1.14902
C         46.39754        30.90229        -1.35195
C         47.69182        32.95279        -0.75695
C         46.49694        33.44157        -0.17957
C         47.67964        36.14336        -0.65393
C         46.53284        35.64580        -0.12131
C         47.63476        37.51125        -1.19520
C         46.37857        38.28523        -0.94575
C         47.58820        40.44623        -1.17831
C         46.35238        39.66183        -0.95996
C         47.60297        41.90348        -0.72944
C         46.30437        42.68154        -0.55685
C         47.70608        44.38493         1.02649
C         46.41800        43.86910         0.39457
C         47.74804        45.89870         1.15630
C         46.48777        46.57545         1.43151
C         47.75055        48.73936         1.81061
C         46.47644        48.01859         1.60674
C         47.71425        50.20756         1.73360
C         46.55638        50.87648         1.51750
C         50.12565        24.39812        -0.21073
C         48.93166        25.25253         0.15900
C         50.11165        27.16458        -0.89795
C         48.89218        26.52985        -0.69064
C         50.19071        28.64262        -0.88779
C         48.91383        29.43816        -0.98003
C         50.19859        31.58257        -0.89026
C         48.91757        30.89359        -1.16888
C         50.20651        33.07262        -0.79113
C         48.90057        33.81418        -0.90854
C         50.21256        36.05000        -0.47445
C         48.91815        35.32372        -0.84535
C         50.24197        37.52310        -0.91097
C         48.96901        38.22180        -1.30197
C         50.11677        40.32391        -0.64277
C         48.92704        39.72511        -1.30507
C         49.89883        41.39514         0.15560
C         48.85091        42.39842        -0.05964
C         50.20509        44.43792         0.51457
C         48.99561        43.75726         0.53696
C         50.15021        45.92736         0.52856
C         48.94360        46.57320         1.11037
C         50.31223        48.71229         1.30749
C         49.05529        47.97667         1.56140
C         51.28190        24.95568        -0.60751
C         52.70145        27.18514        -0.84183
C         51.38628        26.40430        -0.91921
C         52.67706        28.68178        -0.85743
C         51.47609        29.35136        -1.00062
C         52.74636        31.57578        -1.34575
C         51.45486        30.82536        -1.22650
C         52.75999        33.09999        -1.29184
C         51.43193        33.85882        -1.13082
C         52.72050        35.96160        -1.11290
C         51.45116        35.28349        -0.85707
C         52.72498        37.46937        -0.97430
C         51.42483        38.19820        -0.85680
C         52.71064        40.23781        -0.09926
C         51.48500        39.71767        -0.95480
C         52.83166        41.75178        -0.04170
C         51.75778        42.47913         0.45787
C         52.70479        44.61272        -0.05104
C         51.52321        43.85484         0.27304
C         52.70166        46.03307         0.11075
C         51.41126        46.73316         0.30517
C         51.39905        48.14463         0.75985
C         55.00170        27.30079         0.02249
C         53.92533        26.55254        -0.31064
C         55.03891        28.73891        -0.19537
C         53.90990        29.40322        -0.70160
C         55.13596        31.62322        -0.43963
C         54.07652        30.83678        -1.19424
C         55.14126        33.06470        -0.48087
C         53.98575        33.80598        -0.87365
C         55.17670        35.94851        -0.59127
C         53.98716        35.22215        -0.86024
C         55.18674        37.41550        -0.59522
C         53.99970        38.12531        -0.64656
C         55.28323        40.36463        -0.70019
C         53.96802        39.60671        -0.67607
C         55.26834        41.82798        -0.47777
C         54.00500        42.49903        -0.37125
C         55.14905        44.71374        -0.71028
C         53.92537        43.92095        -0.32389
C         55.13261        46.09830        -0.12913
C         53.95274        46.71893         0.17230
C         56.18289        29.49151         0.17622
C         56.19224        30.88858         0.11369
C         56.30766        33.81851        -0.16494
C         56.33512        35.19617        -0.26137
C         56.42503        38.17189        -0.46691
C         56.48234        39.52829        -0.51488
C         56.46082        42.60538        -0.38916
C         56.42614        43.97040        -0.43860
O         50.30750        32.27167         0.42722
O         28.78040        40.26604        -2.86637
O         39.85850        28.94489         1.80239
O         43.32649        45.93325         2.81103
O         50.45833        46.48206        -0.81015
O         43.15340        48.56252         2.79480
O         28.42768        39.23426         0.75117
O         46.62196        34.52018         0.69095
O         37.19303        35.25913         2.09663
O         31.94833        33.76346        -1.27119
O         30.63360        35.24178         1.95792
O         52.07378        33.63043        -2.44815
O         35.24737        48.44092        -1.31226
O         40.08866        23.13519        -0.36148
O         47.07534        28.92680        -2.60133
O         38.49906        46.58576         2.65759
O         32.30808        29.11258        -1.79780
O         32.09041        42.39959         1.63686
O         48.54809        48.19688         2.92239
O         36.06395        26.72901        -1.23421
O         32.36546        42.51080        -1.95174
O         52.77530        36.83296        -2.31320
O         38.43240        50.80621         2.11147
O         41.31960        37.42036         1.70515
O         46.42248        25.29766        -1.48430
O         50.79997        41.73345         1.16995
O         49.44592        29.11178         0.35637
O         32.04973        37.46208        -0.85624
O         52.20790        26.64064        -2.11727
O         43.01127        26.78525        -1.85682
O         54.48285        40.09683        -1.93234
O         48.28711        40.29613        -2.47037
O         45.58088        31.52330        -2.42795
O         48.31682        37.66409        -2.48053
O         48.58667        42.62293        -1.52096
O         37.19454        25.15818         1.99375
O         48.91822        34.64678        -2.13411
O         52.02930        31.13386        -2.54792
O         40.41458        41.98264        -0.50515
O         27.12746        33.14848         1.57667
H         27.17769        34.09731         1.82054
O         41.87822        52.02785        -1.46732
H         42.66684        51.46209        -1.60830
O         34.01123        44.47472        -1.98336
H         33.85491        43.61426        -2.44171
O         51.76497        40.10598        -2.30612
H         51.08241        39.72652        -2.89880
O         54.62391        30.69570        -2.54257
H         53.85603        30.52917        -3.13765
O         38.48402        45.99005        -0.89835
H         37.81943        45.68372        -1.55166
O         44.73198        40.75703        -2.30100
H         45.18264        41.61085        -2.51769
O         36.35328        42.41760         2.86397
H         37.24626        42.64526         3.22806
O         28.95368        29.56360        -2.17259
H         29.10315        28.66461        -2.53644
O         49.22583        25.78073         1.50274
H         49.84791        26.53462         1.41697
O         36.33656        38.49360        -1.24101
H         36.49786        37.69711        -1.79412
O         55.10126        44.90035        -2.18461
H         54.21185        45.25467        -2.40055
O         52.57840        39.69997         1.23465
H         51.89444        40.24006         1.69756
O         33.68094        25.41707         2.10921
H         34.53703        25.62305         2.54382
O         35.81016        31.59861        -1.70732
H         35.10522        31.99763        -2.26016
O         33.88550        39.52831        -1.09694
H         34.73859        39.18851        -1.47038
O         40.42849        39.93959         2.57128
H         40.36592        38.96653         2.75501
O         32.57468        40.10234         2.25150
H         32.27952        41.03150         2.53149
O         41.89108        47.93936        -0.58131
H         41.11625        47.54335        -1.03655
O         43.96705        33.99239        -2.09000
H         44.37902        33.20437        -2.51437
O         36.14591        31.09425         1.91549
H         36.99292        31.16571         2.41752
O         39.19632        39.42879        -0.86092
H         39.40924        40.33909        -1.16913
O         39.14547        42.27925         2.94271
H         39.48313        41.38159         3.19499
O         34.89008        44.72835         2.19021
H         35.06254        43.89160         2.68769
O         47.62173        43.89839         2.42501
H         46.88707        44.38295         2.86198
O         34.01386        37.97308         2.29321
H         33.46905        38.72287         2.64720
O         41.49224        25.00198        -1.84034
H         41.23506        24.08397        -2.07197
O         33.96606        34.41328         2.23459
H         33.93158        35.09401         2.94051
O         39.02988        31.29293         2.22901
H         39.59168        30.60599         2.66281
O         42.09823        37.42371        -1.79248
H         42.78400        37.07425        -2.40117
O         37.06408        35.69169        -1.31044
H         37.25770        34.78316        -1.61902
O         36.45947        38.95208         2.39141
H         36.26007        39.73054         2.95335
O         38.80446        37.82135         2.39923
H         38.25406        37.02219         2.57613
O         41.88593        26.40727         1.54861
H         41.45580        27.14019         2.04085
O         50.16238        36.11105         0.99662
H         50.96805        36.57004         1.31666
O         29.95385        37.74935         2.20415
H         29.48993        38.61836         2.24081
O         46.01149        43.23803        -1.89117
H         46.88075        43.47203        -2.29293
O         34.32041        34.57521        -1.39495
H         33.43236        34.74214        -1.79756
O         36.22720        47.94711         2.18500
H         37.01607        47.45956         2.59849
H         26.94926        26.68504        -0.14939
H         25.69669        28.80830         0.12779
H         25.66827        31.29757         0.19050
H         25.91850        33.07725        -1.15838
H         26.08421        35.46094        -1.65185
H         25.84994        37.39711        -1.38640
H         26.08025        39.65378        -2.21864
H         26.32477        41.62240        -2.88452
H         26.36007        44.08030        -2.91671
H         27.49602        46.21297        -2.51743
H         29.09105        25.51101        -0.27122
H         29.43016        47.50671        -1.74041
H         32.76761        23.39446         0.07394
H         30.75090        24.59906        -0.56001
H         32.84633        49.80645        -0.58614
H         30.83600        48.48361        -0.94482
H         34.35056        22.51822         0.95838
H         34.50104        50.88188         0.02370
H         36.43744        21.31211         1.39331
H         36.52114        52.08941         0.66840
H         40.30815        20.66224         4.22894
H         38.08839        21.25405         3.25366
H         40.51892        54.09827        -0.06579
H         38.40574        53.10763         0.64042
H         42.68297        20.94827         4.38021
H         42.98435        54.05984         0.28919
H         44.77773        21.88949         3.51575
H         44.95182        52.92889         1.14955
H         48.49390        23.42184         2.12256
H         46.39018        22.39842         2.82042
H         48.64870        50.76773         1.87260
H         46.58571        51.97244         1.45411
H         50.06775        23.31219        -0.04294
H         50.36844        49.75332         1.65515
H         52.15415        24.32479        -0.83444
H         52.30940        48.74784         0.63745
H         55.90512        26.81913         0.42496
H         53.95018        25.45902        -0.20337
H         56.07690        46.66014        -0.08408
H         53.97412        47.77208         0.48628
H         57.04510        28.96677         0.61172
H         57.04945        31.41413         0.55786
H         57.23163        33.29769         0.11878
H         57.27802        35.71348        -0.03946
H         57.36603        37.62095        -0.33217
H         57.45103        40.02642        -0.36179
H         57.42818        42.09148        -0.28802
H         57.36205        44.54636        -0.38943
