         210
 CSIRO Nanostructure Databank - Neutral Graphene Oxide Data Set
C         30.60060        31.82866         1.49234
C         30.54152        33.11053         1.27284
C         30.60568        36.08815         0.50911
C         30.54804        37.29356         0.17258
C         30.56816        40.30976        -0.56988
C         30.47476        41.53156        -0.87071
C         33.04135        28.96946         1.89989
C         31.93882        29.57920         1.82864
C         33.10454        31.85374         1.94047
C         31.50375        30.87611         1.70508
C         32.97562        33.13709         1.16473
C         31.68457        33.89718         1.11896
C         32.95054        36.03722         0.64531
C         31.72207        35.27069         0.77908
C         32.90377        37.43077         0.32233
C         31.69293        38.12442         0.03661
C         32.90346        40.27250        -0.45206
C         31.68510        39.50829        -0.30783
C         32.87531        41.67145        -0.80139
C         31.60188        42.36037        -1.00980
C         32.86005        44.31685        -1.35910
C         31.75142        43.74433        -1.30514
C         35.77739        27.51825         1.79834
C         35.54611        28.91896         1.61307
C         34.32592        29.60349         1.69072
C         35.51032        31.71268         1.28470
C         34.31166        31.02669         1.57702
C         35.56481        33.23425         1.40781
C         34.25544        33.88160         0.93837
C         35.43477        36.00807         0.53072
C         34.21967        35.35418         0.74331
C         35.47216        37.48033         0.44495
C         34.13739        38.23770         0.34543
C         35.37547        40.28398        -0.38583
C         34.14596        39.61346        -0.20341
C         35.36504        41.68473        -0.72972
C         34.12513        42.37259        -0.90708
C         35.37847        44.48048        -1.30491
C         34.17230        43.79520        -1.20545
C         35.60758        45.87089        -1.56447
C         38.14583        27.38432         1.65974
C         36.79039        26.81474         1.66984
C         38.09181        28.92300         1.48599
C         36.77591        29.62108         1.41915
C         38.04078        31.78948         1.20141
C         36.73651        31.00810         1.19508
C         37.92820        33.16627         0.57275
C         36.73438        33.87585         0.67961
C         37.86281        35.97219         0.03018
C         36.67423        35.27819         0.39310
C         37.86328        37.40242        -0.19773
C         36.67768        38.15604        -0.05312
C         37.84622        40.25126        -0.57523
C         36.63592        39.56583        -0.31459
C         37.83759        41.67506        -0.78446
C         36.60243        42.38823        -0.87480
C         37.88183        44.49043        -1.25972
C         36.64120        43.79209        -1.16583
C         38.02317        45.95600        -1.73773
C         36.64079        46.55070        -1.58701
C         40.32006        24.57379         0.50076
C         39.37591        25.28084         0.93589
C         40.42433        27.34934         0.57306
C         39.28425        26.67089         1.09443
C         40.40799        28.80562         0.50284
C         39.27031        29.57654         0.87216
C         40.35365        31.65435         0.16214
C         39.23191        30.98544         0.69221
C         40.32713        33.09665        -0.04288
C         39.11393        33.83123         0.14000
C         40.29488        35.92524        -0.41770
C         39.08210        35.24089        -0.09852
C         40.30217        37.35382        -0.59420
C         39.09459        38.07498        -0.49993
C         40.29181        40.20088        -0.82306
C         39.09697        39.52437        -0.62363
C         40.30406        41.65003        -1.00062
C         39.05024        42.38838        -0.90462
C         40.32911        44.51925        -0.72361
C         39.09039        43.80332        -1.02429
C         40.27846        45.94366        -0.52914
C         39.11605        46.65574        -0.98424
C         40.18894        48.68715        -0.18566
C         39.25817        48.00366        -0.72792
C         42.67628        24.53584        -0.53889
C         41.51413        25.14035        -0.00510
C         42.70707        27.31609        -0.41642
C         41.54484        26.60128         0.05123
C         42.73447        28.75901        -0.36655
C         41.57459        29.48529         0.01689
C         42.75028        31.59327        -0.47377
C         41.55251        30.91579        -0.12135
C         42.72796        33.04300        -0.88265
C         41.48662        33.78690        -0.45529
C         42.77047        35.88778        -0.97251
C         41.48626        35.18532        -0.58363
C         42.76950        37.36188        -0.64936
C         41.56848        38.03948        -0.72558
C         42.79981        40.23525        -0.53230
C         41.59283        39.50058        -1.08862
C         42.79801        41.61794        -0.35861
C         41.61464        42.40505        -0.76322
C         42.61812        44.47525         0.22709
C         41.51333        43.82883        -0.41841
C         42.50593        45.84148         0.55180
C         41.38266        46.61395         0.10266
C         42.54286        48.54113         0.90341
C         41.35278        48.07205         0.26468
C         43.62947        25.25914        -0.94148
C         45.02730        27.32967        -1.53015
C         43.83746        26.63598        -0.95813
C         45.10468        28.80012        -1.12988
C         43.95549        29.46028        -0.68697
C         45.20948        31.63235        -0.70442
C         43.96177        30.90480        -0.62559
C         45.22020        33.02850        -0.40767
C         43.98432        33.77516        -0.47550
C         45.13078        35.89445         0.02412
C         43.96833        35.14394        -0.44493
C         45.22317        37.35107        -0.15343
C         44.02160        38.08101        -0.46502
C         45.24565        40.23590        -0.11453
C         44.00218        39.48477        -0.35138
C         45.16787        41.62840         0.35219
C         43.93613        42.33219         0.17690
C         45.02297        44.38547         0.95476
C         43.84034        43.71302         0.48960
C         44.91907        45.78481         1.26425
C         43.58616        46.43221         1.47005
C         43.55945        47.92776         1.25521
C         47.46275        27.35672        -1.16371
C         46.38363        26.75879        -1.11993
C         47.70475        28.77832        -1.41595
C         46.35222        29.54824        -1.36351
C         47.67484        31.65618        -0.91872
C         46.43161        30.97024        -0.98031
C         47.68356        33.04639        -0.55814
C         46.45322        33.69642        -0.26558
C         47.70974        35.85713         0.15473
C         46.46408        35.09789         0.15288
C         47.65619        37.25586         0.37331
C         46.43731        37.98204         0.15725
C         47.62932        40.11644         0.87272
C         46.53421        39.45412         0.12750
C         47.51426        41.47545         1.18448
C         46.32469        42.25272         0.86762
C         47.46331        44.35500         1.53726
C         46.26435        43.67274         1.11796
C         47.27586        45.74189         1.66122
C         46.15573        46.32565         1.60183
C         50.21792        28.98503        -1.01695
C         48.92970        29.51499        -1.12474
C         50.18567        31.66038        -1.01084
C         48.94478        30.94621        -1.04504
C         50.13213        33.14829        -0.99139
C         48.90318        33.80077        -0.51426
C         50.17094        35.87437         0.11483
C         48.93421        35.15982        -0.10083
C         50.09380        37.12962         0.99706
C         48.84790        37.97454         0.75813
C         49.97409        39.85378         1.96691
C         48.80073        39.31300         1.14639
C         49.92146        41.38205         2.22501
C         48.62072        42.14719         1.91958
C         49.84425        44.10196         2.37458
C         48.64278        43.63811         1.88356
C         51.33619        29.57151        -0.98827
C         52.57263        31.86491        -1.00850
C         51.45156        30.97277        -0.99838
C         52.58724        33.09464        -0.83804
C         51.45212        34.00806        -0.92807
C         52.55136        36.06653         0.12818
C         51.38618        35.30407        -0.25690
C         52.44995        37.26195         0.48284
C         51.35560        38.02764         0.94657
C         52.33518        40.25875         1.59151
C         51.30048        39.30984         1.40292
C         52.36509        41.40891         2.08379
C         51.21118        42.19222         2.35726
C         50.98146        43.53900         2.54269
O         45.62260        35.41193         1.30923
O         41.16119        42.10429        -2.13177
O         48.93493        41.62617         3.27236
O         46.25259        40.04568        -1.18055
O         35.86102        33.47837         2.76880
O         38.40330        28.26396         2.76420
O         50.72221        33.84873        -2.14976
O         34.87398        38.14348         1.60955
O         47.04345        29.19918        -2.63577
O         33.63037        33.10780        -0.14693
O         49.85700        39.23263         3.27743
H         49.27781        39.82163         3.81915
O         38.27034        32.08227         2.61398
H         37.47286        32.62037         2.90874
O         33.05277        32.11246         3.29592
H         33.48764        31.39702         3.80284
O         38.38736        45.93763        -3.11474
H         37.66886        45.51244        -3.62699
O         41.75420        39.48998        -2.55372
H         41.68463        40.43457        -2.84306
O         42.71500        33.02109        -2.34671
H         41.86710        32.62457        -2.63652
O         42.88792        35.85015        -2.43164
H         42.25160        36.49682        -2.80533
O         50.00423        36.62589         2.34895
H         49.92590        37.40690         2.95389
O         44.96994        27.26571        -2.95091
H         45.74246        27.77392        -3.29634
O         43.17374        46.15374         2.81684
H         43.87455        46.46682         3.42653
