         278
 CSIRO Nanostructure Databank - Neutral Graphene Oxide Data Set
C        -10.78967         0.75150         1.85939
C         -9.59406         1.54270         1.37769
C         -8.78748         0.72921         0.38204
C         -7.66205         1.50508        -0.33736
C         -6.38588         0.81606        -0.81574
C         -5.16318         1.47979        -0.19644
C         -3.87144         0.73153        -0.01253
C         -2.50628         1.45489         0.20385
C         -1.30019         0.73527        -0.38323
C         -0.16323         1.43754        -0.68560
C          1.10662         0.66931        -1.07475
C          2.39648         1.45051        -0.80592
C          3.67614         0.71310        -0.97531
C          4.94645         1.46663        -1.06924
C          6.25556         0.75325        -0.90617
C          7.38903         1.45170        -0.22109
C          8.73613         0.74249        -0.25421
C          9.79034         1.39627         0.60679
C         11.00438         0.62465         0.84766
C         -9.84382         2.94241         0.86934
C         -8.84251         3.62316         0.22882
C         -7.61731         2.94052        -0.12216
C         -6.38974         3.63939        -0.29316
C         -5.18121         2.95665        -0.31320
C         -3.90086         3.67524        -0.28619
C         -2.57196         2.97167        -0.13450
C         -1.34102         3.63323        -0.66692
C         -0.18617         2.91017        -0.84074
C          1.05926         3.63567        -1.37477
C          2.37777         2.94711        -0.92528
C          3.69835         3.68996        -0.96991
C          5.05155         2.96800        -0.76256
C          5.77284         3.18403         0.58409
C          7.20105         2.63583         0.43135
C          8.34650         3.35813         0.99867
C          9.61634         2.65393         1.09355
C         -8.98207         5.07750        -0.16124
C         -7.66969         5.84929        -0.08423
C         -6.44742         5.12186        -0.60245
C         -5.13761         5.80234        -0.30824
C         -3.96902         5.12941        -0.53351
C         -2.71415         5.84032        -0.85175
C         -1.41570         5.08635        -1.16630
C         -0.22477         5.90159        -0.59575
C          1.06024         5.15097        -1.00191
C          2.31558         5.84292        -0.58197
C          3.61863         5.08628        -0.46317
C          4.45060         5.42924         0.76814
C          5.74675         4.65716         1.03406
C          6.97254         5.38283         1.49080
C          8.25417         4.65630         1.42559
C         -7.64589         7.17768         0.13547
C         -6.40149         8.03967         0.19933
C         -5.12109         7.21424         0.13164
C         -3.85156         7.98291         0.05078
C         -2.68311         7.31338        -0.60710
C         -1.45763         8.18985        -0.72817
C         -0.15759         7.42508        -1.05920
C          1.14200         8.15550        -0.40547
C          2.15177         7.14550         0.15949
C          3.27731         7.64312         0.98622
C          4.66766         7.00372         0.68136
C          5.83459         7.59932         1.43954
C          6.95730         6.86109         1.64677
C         -6.28760         9.12306        -0.87116
C         -5.13248         9.78924        -1.04005
C         -3.93383         9.50934        -0.13862
C         -2.55512        10.00091        -0.62183
C         -1.43523         9.38635         0.17957
C         -0.31776         9.96854         0.67168
C          0.94799         9.25488         0.66642
C          2.00471         9.74353         1.37608
C          3.31176         9.02628         1.63890
C          4.62154         9.74355         1.41696
C          5.78770         9.06382         1.48453
C        -10.75285        -0.59649         1.92320
C         -9.65604        -1.38948         1.35040
C         -8.64238        -0.68808         0.63565
C         -7.56770        -1.43382        -0.02948
C         -6.42012        -0.69638        -0.63261
C         -5.10556        -1.40866        -0.83730
C         -3.86358        -0.81570        -0.16416
C         -2.56517        -1.42203        -0.80130
C         -1.31830        -0.78088        -0.13847
C         -0.02263        -1.50716        -0.48784
C          1.23809        -0.69314        -0.34742
C          2.49249        -1.43014        -0.75443
C          3.67856        -0.70059        -0.97810
C          4.96422        -1.44774        -1.19968
C          6.27648        -0.74097        -1.00191
C          7.46878        -1.49084        -0.49932
C          8.55546        -0.72171         0.17787
C          9.75686        -1.49367         0.65407
C         11.01057        -0.72937         0.83418
C         -9.69558        -2.77608         1.29496
C         -8.78673        -3.55537         0.35094
C         -7.38046        -2.90243         0.33264
C         -6.39919        -3.62586        -0.61277
C         -5.13263        -2.89486        -1.04230
C         -3.77531        -3.65645        -1.25901
C         -2.57253        -2.97009        -0.55669
C         -1.24446        -3.62012        -0.98748
C          0.00058        -2.86633        -0.65718
C          1.25115        -3.66353        -0.49825
C          2.55408        -2.87416        -0.29348
C          3.80316        -3.69079        -0.64903
C          5.02848        -2.93192        -1.04144
C          6.30365        -3.63778        -0.74219
C          7.41568        -2.96243        -0.33495
C          8.64347        -3.66566         0.05203
C          9.76219        -2.94980         0.48137
C         -8.74197        -5.08436         0.65499
C         -7.35605        -5.69684         0.58245
C         -6.37342        -5.11509        -0.38292
C         -5.09100        -5.87567        -0.61166
C         -3.81968        -5.15484        -0.94774
C         -2.51083        -5.84718        -0.54137
C         -1.25267        -5.13888        -1.04778
C          0.00403        -5.89135        -0.98065
C          1.27247        -5.13868        -0.80523
C          2.50796        -5.80788        -1.39759
C          3.82005        -5.15514        -0.96858
C          5.11068        -5.83812        -1.38275
C          6.44030        -5.06378        -1.23505
C          7.52094        -5.82112        -0.49269
C          8.62798        -5.08296         0.01649
C         -7.08686        -6.79956         1.31314
C         -5.74527        -7.48123         1.32314
C         -4.97474        -7.23353         0.03698
C         -3.72823        -8.02201        -0.14567
C         -2.54637        -7.35252        -0.80358
C         -1.23588        -8.07520        -0.76443
C          0.02722        -7.28285        -0.81627
C          1.25470        -7.97770        -0.72012
C          2.49803        -7.33034        -1.19189
C          3.78928        -8.09599        -1.17620
C          5.10892        -7.34191        -1.31101
C          6.39439        -8.09546        -0.92937
C          7.50180        -7.19182        -0.43366
C         -5.78555        -8.96915         1.60679
C         -4.70221        -9.72825         1.38461
C         -3.41209        -9.11872         0.87062
C         -2.45658       -10.13905         0.21909
C         -1.16668        -9.43848        -0.17874
C          0.03990        -9.99941         0.07464
C          1.29621        -9.34784        -0.28577
C          2.49156       -10.02091        -0.14918
C          3.82317        -9.53821        -0.66270
C          4.94563        -9.73011         0.32594
C          6.11625        -9.10593         0.16999
O          5.99600         3.54044        -1.67527
H          5.64538         3.48376        -2.58878
O         -4.57486        -5.86757        -1.97009
O          6.03019         4.70875         2.47642
O          1.75687         8.86996        -1.42180
O          4.93760        -2.32927        -2.37798
O         -4.25906         7.42209         1.32932
O         -3.52662        -3.57626        -2.67266
H         -4.14257        -4.20246        -3.11632
O         -2.02685         9.19499        -1.75399
O         -1.38744        -1.01582         1.27112
O          8.65652        -1.00454         1.58375
O         -7.47917        -1.24195        -1.49328
O         -4.77600         1.03027         1.12495
O         -6.99227        -4.52828        -1.57164
O          2.71283        -2.69485         1.14224
H          1.92690        -2.22171         1.50405
O          4.93592         7.27915        -0.63215
O          4.00809        -4.70176         0.39628
O          1.84855         5.90652        -1.95653
O         -8.88919         1.09906        -1.02152
O          5.12351        -6.63750        -2.59408
O          3.00010        -8.02876        -2.40350
O          5.10834         2.40295         1.58373
H          5.35465         2.77627         2.46004
O          1.51655        -0.41558         1.14357
O         -2.69339        -8.54732         1.98515
H         -3.23193        -7.78889         2.32376
O         -2.25367         1.39086         1.62323
H         -3.00777         1.84902         2.06119
O          2.19068         6.90550         1.60761
O         -2.03710        -7.92146        -2.01464
O          7.32956        -1.15507        -1.93405
O         -1.27567         5.01097        -2.59143
H         -1.15560         5.93526        -2.92243
O         -2.42061        -5.83723         0.90617
H         -2.47116        -4.89228         1.21757
O          4.02224         4.81585        -1.83338
O         -2.66413        -3.23727         0.85136
H         -2.08998        -2.54179         1.30704
O          6.96918        -4.89640        -2.57915
H          6.40910        -4.24320        -3.05254
O          1.03604         3.52081        -2.81051
H          1.32873         4.38696        -3.17925
O         -3.98709        -1.26839         1.19063
H         -3.15920        -0.95824         1.65356
O         -0.00531         7.46847        -2.46795
H          0.76009         8.09599        -2.62034
O         -3.02903         6.79471        -1.93400
O         -9.30273        -5.38102         1.93432
H        -10.27142        -5.47148         1.83983
O         -6.79953        -3.01065         1.64383
H         -7.44465        -2.67821         2.30355
O          5.80033         1.19948        -2.23874
O         -4.91539        -8.31824        -0.93564
O          1.23239        -4.67966         0.58373
O         -0.35101         5.94336         0.83345
H         -0.43054         5.03215         1.18845
O         -1.26905        -4.30876        -2.25790
O          6.87651        -8.79267        -2.09710
H          6.80708        -8.16731        -2.85135
O         -3.16280         3.62961         1.03957
O         -6.60991         5.18607        -2.06246
H         -5.77315         4.88984        -2.48117
O         -4.93646        -6.84387         2.37032
H         -5.47445        -6.80879         3.18938
O          2.30718         2.31095         0.38299
O        -10.01445         5.67527         0.61003
H        -10.25811         6.53086         0.20443
O         -2.19213       -11.19302         1.14007
H         -1.98321       -10.77044         2.00051
O          1.04422         0.38296        -2.48319
H          0.84783         1.22043        -2.96051
O         -4.15296        10.17736         1.11350
H         -5.03426         9.87431         1.45075
O          9.23978         0.74201        -1.60631
H          8.57043         0.28932        -2.17527
O         -5.16100        -1.94830        -2.17745
O         -2.50769        -1.11539        -2.18702
H         -3.04728        -1.77669        -2.69077
O         -8.70030         1.67040         2.53584
H         -9.14287         2.24100         3.19890
O         -9.38816        -3.43133        -0.95537
H         -9.03862        -2.63299        -1.40923
O         -6.45203         8.71727         1.48613
H         -5.96572         8.14821         2.12617
O          2.39999        -5.54934        -2.81106
H          2.91277        -6.25477        -3.27483
O          0.64914         0.58133         1.65160
H         -0.23606         0.08671         1.76572
O          3.28749         8.77262         3.07225
H          2.54407         8.14799         3.23292
O          4.11428       -10.38785        -1.80433
H          3.59888       -10.03039        -2.56185
O          3.60204         5.05116         1.84211
H          4.14897         5.03110         2.66199
O         -6.26808         1.05522        -2.23380
H         -6.94110         0.48904        -2.67451
H         11.93970        -1.28891         1.01620
H         11.92819         1.17414         1.08436
H         10.42367         3.13599         1.66637
H          9.15854         5.17210         1.78272
H          7.88224         7.33826         2.00718
H          6.74481         9.60955         1.48876
H          4.62061        10.84267         1.37914
H          1.80217        10.57713         2.07041
H         -0.34869        10.99416         1.07112
H         -2.51989        11.09676        -0.81966
H         -5.05701        10.58692        -1.79525
H         -7.16606         9.35863        -1.49104
H         -8.57909         7.68923         0.42397
H         -9.28595         5.08799        -1.25388
H        -10.76655         3.47176         1.15068
H        -11.65406         1.29899         2.26650
H        -11.60398        -1.14945         2.34895
H        -10.57493        -3.28926         1.71352
H         -9.36987        -5.58247        -0.13349
H         -7.86130        -7.17115         2.00335
H         -6.71150        -9.40997         2.00816
H         -4.71250       -10.80536         1.61208
H         -2.94096       -10.58294        -0.68768
H          0.08585       -10.99878         0.53249
H          2.46660       -11.06430         0.20173
H          4.80868       -10.46084         1.13719
H          6.93990        -9.31567         0.87009
H          8.37011        -7.70701         0.00841
H          9.48327        -5.63699         0.43264
H         10.69194        -3.49558         0.70398
