         276
 CSIRO Nanostructure Databank - Neutral Graphene Oxide Data Set
C        -10.70342         0.91570         1.65447
C         -9.55460         1.71188         1.17006
C         -8.37407         0.95389         0.64794
C         -7.71347         1.55659        -0.62353
C         -6.32815         0.87963        -0.92654
C         -4.99296         1.63184        -0.75460
C         -3.74510         0.80320        -1.01513
C         -2.48629         1.44152        -1.48936
C         -1.15292         0.68813        -1.35934
C         -0.05995         1.59608        -0.73027
C          1.23080         0.77224        -0.57606
C          2.55294         1.42024        -0.53600
C          3.81253         0.70262        -0.82877
C          4.96765         1.37246        -0.60590
C          6.26235         0.74356        -1.09425
C          7.53399         1.46291        -0.56356
C          8.75671         0.69651        -0.20046
C          9.87718         1.40428         0.47879
C         11.03515         0.59875         0.78164
C         -9.78198         3.11847         0.75876
C         -8.79878         3.80249         0.11303
C         -7.69892         3.09802        -0.53064
C         -6.82376         3.86795        -1.25030
C         -4.87846         2.86330        -1.60745
C         -3.78328         3.66042        -1.61697
C         -2.45198         2.92647        -1.86808
C         -1.21344         3.69258        -1.46341
C          0.14513         2.94043        -1.53679
C          1.44499         3.69703        -0.99041
C          2.64076         2.90561        -0.58938
C          3.66499         3.36818         0.43614
C          5.06074         2.72002         0.12481
C          6.19524         3.59135        -0.53138
C          7.40546         2.84602         0.07436
C          8.71172         3.58326         0.23328
C          9.87522         2.78302         0.54273
C         -8.94037         5.28501        -0.19761
C         -7.62688         6.02468        -0.44243
C         -6.50518         5.27382        -1.00806
C         -5.23236         5.81428        -1.16785
C         -3.98231         5.16423        -1.89768
C         -2.63767         5.84400        -1.51609
C         -1.39198         5.02407        -1.65268
C          0.36198         5.97165        -0.68036
C          1.39144         5.02108        -0.28866
C          2.44133         5.61138         0.62074
C          3.74288         4.87112         0.67304
C          4.99557         5.64214         0.58986
C          6.18542         5.14291        -0.23687
C          7.47029         5.72994         0.34875
C          8.69275         4.95166         0.37023
C         -7.55552         7.36787        -0.23848
C         -6.30528         8.10151        -0.48142
C         -5.09708         7.27262        -0.85040
C         -3.82359         7.72584        -0.19173
C         -2.54927         7.06628        -0.62081
C         -1.45890         7.35076         0.41426
C         -0.07545         6.83902         0.25354
C          0.87136         7.57527         1.12457
C          2.33671         7.11166         0.95578
C          3.60307         7.91142         0.61971
C          4.90011         7.14744         0.55429
C          6.16179         7.76878         1.13589
C          7.44080         7.03626         0.75935
C         -6.11029         9.44659         0.13723
C         -4.90200         9.94503         0.46002
C         -3.69875         9.07413         0.47985
C         -2.33542         9.62892         0.78469
C         -1.26072         8.80925         0.79263
C          0.16654         8.98730         1.32722
C          1.22503         9.84460         0.69865
C          2.42446         9.96158         1.38656
C          3.66648         9.49261         0.65436
C          5.02430         9.99918         1.10854
C          6.15825         9.27812         1.10111
C        -10.78311        -0.42804         1.48958
C         -9.67016        -1.27849         1.09037
C         -8.29476        -0.57573         0.95492
C         -7.37944        -1.30670        -0.02766
C         -6.28280        -0.60564        -0.76097
C         -4.96795        -1.28521        -0.43273
C         -3.69588        -0.53827        -0.38836
C         -2.41402        -1.26747        -0.28810
C         -1.25980        -0.64662        -0.59699
C          0.01783        -1.29883        -0.11716
C          1.19707        -0.69847        -0.85543
C          2.43501        -1.46040        -1.21538
C          3.79084        -0.70598        -1.44343
C          5.04532        -1.44556        -0.97979
C          6.22603        -0.77420        -0.88595
C          7.60385        -1.41267        -1.03057
C          8.60255        -0.80417        -0.00490
C          9.94227        -1.51600         0.06502
C         11.07956        -0.74588         0.53327
C         -9.89667        -2.64239         1.02787
C         -8.83955        -3.64879         0.96294
C         -7.09528        -2.58860         0.32352
C         -6.15415        -3.49593        -0.35339
C         -4.87205        -2.77312        -0.63033
C         -3.50053        -3.44304        -0.65333
C         -2.48771        -2.69012         0.26614
C         -1.16579        -3.44388         0.23191
C          0.00070        -2.80936        -0.02962
C          1.40716        -3.40041         0.11120
C          2.33570        -3.01123        -1.08035
C          3.71447        -3.69038        -0.92517
C          4.97963        -2.89884        -0.68452
C          6.28405        -3.65289        -0.59622
C          7.56888        -2.94985        -0.90085
C          8.83701        -3.68430        -0.46307
C         10.02376        -2.86257        -0.13259
C         -8.69914        -4.91270         0.45949
C         -7.37052        -5.57581         0.34659
C         -6.20986        -4.95031        -0.08670
C         -4.94822        -5.70253        -0.37887
C         -3.61296        -4.98040        -0.47229
C         -2.29245        -5.73086        -0.18917
C         -1.30438        -4.89715         0.68523
C          0.05437        -5.58861         0.73589
C          1.34336        -4.90792         0.39549
C          2.43193        -5.85193        -0.15382
C          3.74959        -5.13076        -0.50028
C          5.06852        -5.76749        -0.14158
C          6.31147        -5.16734        -0.80786
C          7.56483        -5.82806        -0.20956
C          8.70308        -5.03538         0.05463
C         -7.31435        -6.99068         0.67442
C         -6.18058        -7.74211         0.54719
C         -4.98204        -7.22813        -0.22984
C         -3.67805        -7.81798         0.28528
C         -2.51162        -7.13641         0.40740
C         -1.30083        -7.82161         0.97649
C          0.00252        -7.08779         0.96003
C          1.30847        -7.84805         1.02493
C          2.57985        -7.11730         0.70421
C          3.85437        -7.93126         0.61121
C          5.11025        -7.20508         0.23961
C          6.30446        -7.99726        -0.29733
C          7.54849        -7.20150         0.01134
C         -6.16104        -9.15445         0.87706
C         -5.04401        -9.90792         0.73650
C         -3.73320        -9.30267         0.43243
C         -2.48912       -10.07784         0.70521
C         -1.25376        -9.35039         1.20595
C          0.06258        -9.96307         0.76070
C          1.25620        -9.33086         0.82816
C          2.50816       -10.15978         0.49152
C          3.83686        -9.42153         0.59799
C          5.12155       -10.12262         0.29079
C          6.27421        -9.46118         0.08833
O          3.84267        -4.74999        -1.91171
O         -2.38496         7.19019        -2.05517
O          1.44633        -1.05471        -2.23606
O         -2.92248        -9.95661        -0.65101
O          5.57225         2.37535         1.45794
O          8.60469         1.28876        -1.53351
O         -5.74002         8.11596        -1.85687
O         -6.40459        -0.00760        -2.08710
O          4.22856         7.54866        -0.66811
O          0.93760        -5.04446         1.78728
O          5.36725        -6.14193         1.22357
O         -7.63321        -3.12942         1.48437
O          1.87598         0.99886         0.70713
O          4.02295        -8.69996         1.85667
O         -6.04614         3.26924        -2.23336
O          5.61602        -3.21848         0.61178
O          2.11332        -7.20508         2.07083
O          1.65700         7.16270         2.26342
O          4.60543         5.08090         1.86230
O         -3.37504         0.72034        -2.42802
O          7.01675         2.62180         1.47318
O         -4.29547        -5.43786        -1.68975
O         -3.99399         7.84142         1.24699
O          1.34782         4.84966         1.18091
O         -0.78376        -7.21430         2.20879
O         -4.49592        -0.70657         0.84979
O         -5.77187        -3.12195        -1.72247
O          6.29437         0.87446        -2.50214
O         -8.24183         1.67440         1.90558
O          8.34966        -3.62663        -1.89426
O         -0.26434         5.80850        -1.90631
O          2.60560         3.56008        -1.87859
O          1.73871        -3.54984        -2.26447
H          1.30878        -2.80020        -2.74461
O          6.16680         3.47124        -1.94716
H          6.26922         2.53088        -2.28511
O          3.60600         9.96058        -0.71808
H          4.11213         9.30334        -1.25614
O         -0.74035         0.32279        -2.68139
H         -1.54349         0.04797        -3.17546
O          6.02702         5.84334        -1.48661
H          6.13147         5.18527        -2.21644
O         -2.93114        -2.66881         1.62649
H         -3.61139        -1.95792         1.72670
O         -7.66892        -0.70390         2.25046
H         -7.86693         0.13076         2.74232
O          7.96979        -0.99080         1.28678
H          8.52337        -0.56932         1.97717
O          0.15344        -0.84477         1.26058
H         -0.57567        -1.24317         1.78208
O         -0.52646         1.95881         0.57421
H          0.22787         1.84047         1.20310
O          6.01951         7.45193         2.56672
H          6.79204         7.82587         3.03985
O          6.17449        -8.06622        -1.74996
H          6.23274        -7.15260        -2.13662
O         -8.60986         1.18996        -1.68882
H         -8.08753         0.68995        -2.36185
O         -9.70079         5.94010         0.81771
H         -9.24552         5.80917         1.67452
O          3.20822         2.82738         1.68146
H          3.75246         3.23031         2.39348
O          1.90192        -6.36177        -1.40143
H          2.05421        -5.66470        -2.08858
O         -5.19879        -7.79343        -1.54986
H         -4.74242        -7.20611        -2.19463
O         -1.91556         6.59959         1.58471
H         -1.20143         6.61189         2.25708
O         -1.62462        -5.93909        -1.44805
H         -2.31300        -6.14120        -2.11975
O         -4.94570         2.08516         0.61919
H         -4.92587         1.28887         1.19992
O         -4.19934         5.38564        -3.29417
H         -4.09705         6.34682        -3.46429
O          0.42325         2.59753        -2.88493
H          0.33675         3.39756        -3.44214
O          3.93362        -0.59010        -2.86801
H          3.07430        -0.28161        -3.23262
O         -1.32011        -9.59479         2.63449
H         -0.83744        -8.84933         3.06878
O          6.31377        -5.41942        -2.22719
H          7.08362        -4.92967        -2.60718
O          2.55477       -11.31225         1.33906
H          2.70753       -10.99818         2.25497
O          8.01492        -1.13129        -2.36162
H          7.52216        -0.31490        -2.68459
O          1.05395        10.14595        -0.58929
H          1.94567        10.37968        -0.96533
O         -1.85976        -4.89630         2.00654
H         -1.12191        -4.80779         2.64719
O         -2.36281         2.94762        -3.32253
H         -3.03119         2.31316        -3.66705
O          2.04243        -2.78871         1.24630
H          1.67342        -3.20759         2.05717
O         -2.96700        -3.24147        -1.97705
H         -3.58724        -3.68776        -2.59768
H         12.01581        -1.29423         0.71812
H         11.93098         1.10365         1.17355
H         10.77950         3.30589         0.89247
H          9.63021         5.47872         0.61137
H          8.37862         7.49555         1.11876
H          7.11801         9.78117         1.30755
H          5.09801        11.09320         1.21624
H          2.37626         9.56430         2.41579
H          0.12376         9.18714         2.42205
H         -2.26278        10.69044         1.06896
H         -4.80504        10.97880         0.82507
H         -7.00526        10.08205         0.22668
H         -8.40641         7.89464         0.22051
H         -9.54141         5.36914        -1.14730
H        -10.67683         3.64143         1.12744
H        -11.58679         1.46566         2.01452
H        -11.72331        -0.93685         1.75736
H        -10.93997        -2.99104         1.11920
H         -9.56929        -5.49039         0.11356
H         -8.21519        -7.45018         1.10880
H         -7.10413        -9.62022         1.20095
H         -5.07608       -10.99081         0.92595
H         -2.60385       -11.10246         1.12727
H          0.05676       -11.04390         0.54698
H          2.40059       -10.53910        -0.56005
H          5.12990       -11.21557         0.42406
H          7.21096       -10.02600        -0.03644
H          8.47044        -7.70993         0.33644
H          9.52577        -5.45827         0.65204
H         10.98135        -3.38406         0.02377
