         661
 CSIRO Nanostructure Databank - Neutral Graphene Oxide Data Set
C          6.10794        31.32506         0.28657
C          6.10758        32.67900         0.15512
C          8.33129        26.90092         0.85464
C          8.04343        28.22376         1.13214
C          7.11643        29.16584         0.59423
C          8.54830        31.31126         0.74339
C          7.29467        30.56329         0.61058
C          8.56874        32.71119         0.42769
C          7.33804        33.42493         0.20043
C          8.55023        35.54207        -0.07849
C          7.33741        34.79866        -0.01833
C          8.54673        36.92461        -0.30767
C         10.92519        22.84308         1.91532
C         10.93726        24.23892         1.66416
C          9.70399        24.92668         1.37987
C         10.88705        27.06471         1.12259
C          9.60368        26.29684         1.23248
C         10.99254        28.53056         1.14659
C          9.91346        29.34364         1.42866
C         11.05697        31.33159         0.67521
C          9.81299        30.69298         0.98866
C         11.06098        32.74158         0.36202
C          9.79826        33.43270         0.31211
C         11.02512        35.54393        -0.07617
C          9.79962        34.83358         0.05431
C         11.01090        36.95179        -0.28419
C          9.75900        37.65428        -0.40541
C         10.98419        39.76523        -0.73015
C          9.77153        39.04648        -0.61234
C         10.97979        41.16076        -0.93329
C         13.36167        18.61926         1.98375
C         13.35919        19.99727         2.25171
C         12.12566        20.73813         2.24265
C         13.45799        22.82459         1.93909
C         12.12049        22.11814         2.05942
C         13.39769        24.31815         2.13609
C         12.16144        24.94565         1.73996
C         13.56270        27.03929         1.33113
C         12.21236        26.32467         1.26977
C         13.45263        28.53613         1.30739
C         12.26696        29.18746         0.97486
C         13.54930        31.23985         0.44649
C         12.25481        30.60520         0.73833
C         13.56430        32.66485        -0.06731
C         12.26372        33.40919         0.13776
C         13.50804        35.50203        -0.11889
C         12.27941        34.82357        -0.04417
C         13.48957        36.96860        -0.09949
C         12.22846        37.68313        -0.35499
C         13.48205        39.78783        -0.80383
C         12.24146        39.06285        -0.61097
C         13.43322        41.16743        -1.07549
C         12.18766        41.88410        -1.07474
C         13.38710        44.04765        -1.24351
C         12.18295        43.29004        -1.22637
C         13.35832        45.46221        -1.27238
C         15.77863        14.56534         0.35761
C         15.69421        16.01134         0.59383
C         14.54788        16.61071         1.26114
C         15.81325        18.70570         1.68728
C         14.56944        17.95802         1.64217
C         15.82799        20.04141         2.20483
C         14.58912        20.68821         2.44189
C         15.80510        22.86946         2.94082
C         14.46846        22.13906         2.85309
C         15.86076        24.33657         2.50544
C         14.52062        25.04130         2.47407
C         15.79230        27.28108         2.47111
C         14.44367        26.56820         2.49982
C         15.84158        28.64337         2.23047
C         14.55447        29.37468         1.90402
C         15.94080        31.46387         1.41803
C         14.77578        30.63109         1.08993
C         15.94186        32.84067         0.94298
C         14.78220        33.44227         0.38343
C         15.99805        35.54673         0.05040
C         14.77184        34.82784         0.08911
C         16.02899        36.90920        -0.59660
C         14.78578        37.71593        -0.26057
C         15.98721        39.76660        -0.90318
C         14.74646        39.11639        -0.71330
C         16.00224        41.18693        -1.30905
C         14.66580        41.90774        -1.38050
C         15.85711        44.09062        -1.12803
C         14.64452        43.37101        -1.25424
C         15.78063        45.50401        -0.99093
C         14.55039        46.21002        -1.16919
C         15.72809        48.39658        -1.30088
C         14.55455        47.63200        -1.34451
C         15.79537        49.73370        -1.74868
C         17.94161        11.16985        -2.20969
C         18.08155        12.09135        -1.22892
C         16.93594        12.48997        -0.33386
C         18.20938        14.70188        -0.02380
C         16.94368        13.97492        -0.02450
C         18.26733        16.05111         0.42571
C         17.00694        16.79093         0.62539
C         18.24678        18.80038         1.39214
C         17.03208        18.09850         1.31051
C         18.25278        20.15885         1.79905
C         17.07766        20.74207         2.29920
C         18.45990        22.85676         2.93354
C         17.10561        22.12633         2.83531
C         18.34953        24.38220         3.09478
C         17.01367        25.09516         3.15332
C         18.21563        27.32985         3.27789
C         16.86606        26.61969         3.30004
C         18.19639        28.83265         3.07743
C         16.99019        29.48379         2.50092
C         18.20557        31.71671         2.40017
C         16.99036        30.87744         2.17261
C         18.16845        33.20429         2.04201
C         17.10951        33.63752         1.06243
C         18.51395        35.61984         0.33842
C         17.16985        34.93852         0.51483
C         18.44697        37.12613         0.11047
C         17.26849        37.72644        -0.32585
C         18.52072        39.80296        -0.95284
C         17.21390        39.11277        -0.64167
C         18.44784        41.31292        -0.96379
C         17.24655        41.98096        -1.10429
C         18.32556        44.19735        -0.87628
C         17.14025        43.42259        -1.06472
C         18.27169        45.56765        -0.64598
C         16.97668        46.24445        -0.61447
C         18.24028        48.49155        -0.88207
C         16.95142        47.78496        -0.74544
C         18.23906        49.83930        -1.31456
C         17.00794        50.47212        -1.75367
C         18.27247        52.53240        -2.28555
C         17.05576        51.79738        -2.22025
C         18.32998        53.80368        -2.89817
C         19.98998         7.81766        -5.24685
C         20.08479         8.96997        -4.44163
C         18.95836         9.51515        -3.75508
C         20.36693        11.25118        -2.77220
C         19.07988        10.64653        -2.95838
C         20.45671        12.53150        -1.98111
C         19.44288        12.61494        -0.82936
C         20.64705        14.72854        -0.21674
C         19.41933        14.05472        -0.34597
C         20.71550        16.06232         0.27484
C         19.49336        16.70761         0.60303
C         20.70200        18.90043         0.73386
C         19.55828        18.06234         1.27034
C         20.69399        20.38398         0.96200
C         19.42876        21.01583         1.46240
C         20.79828        23.14189         1.96215
C         19.48401        22.43444         1.90670
C         20.76469        24.53422         2.40034
C         19.60457        25.14521         2.87899
C         20.76253        27.39764         2.87389
C         19.54588        26.60259         3.19356
C         20.76363        28.74987         2.69938
C         19.53330        29.54852         2.90394
C         20.73682        31.62503         1.86349
C         19.52953        31.02139         2.57113
C         20.71653        33.14493         1.90192
C         19.52640        33.82329         1.78065
C         20.81471        35.91873         1.19562
C         19.47665        35.31389         1.51370
C         20.83897        37.27034         0.78079
C         19.63903        37.91102         0.28629
C         20.84946        40.05299         0.07566
C         19.67481        39.26640        -0.11488
C         20.89758        41.44004        -0.29291
C         19.77501        42.01325        -1.16443
C         20.89486        44.31682        -0.83517
C         19.64759        43.53971        -1.08378
C         20.81204        45.71939        -0.30504
C         19.46467        46.38249        -0.30937
C         20.65930        48.58557        -0.52374
C         19.44432        47.84369        -0.54974
C         20.62156        49.97067        -0.77726
C         19.44855        50.57841        -1.27476
C         20.70050        52.62533        -1.89193
C         19.48498        51.93686        -1.78752
C         20.73981        53.92369        -2.46311
C         19.54646        54.50532        -3.01320
C         20.85524        56.42350        -3.81896
C         19.63830        55.77126        -3.67124
C         20.95933        57.73491        -4.45555
C         22.16016         5.65442        -7.38490
C         21.04471         6.12446        -6.71338
C         22.37411         8.00103        -5.82516
C         21.11991         7.30320        -5.91170
C         22.47674         9.15927        -5.03623
C         21.35739         9.61982        -4.30484
C         22.84553        11.18104        -3.03964
C         21.47825        10.73931        -3.42016
C         23.01710        12.18950        -1.92942
C         21.81779        12.83929        -1.40784
C         23.24819        14.69004        -0.31036
C         21.88516        13.96595        -0.50305
C         23.18906        16.14567        -0.07464
C         21.97943        16.78468         0.33984
C         23.17902        18.93063         0.75512
C         21.99382        18.19126         0.61859
C         23.17035        20.34355         1.08187
C         21.98404        21.08905         1.19172
C         23.27092        23.29048         1.51438
C         21.97349        22.48671         1.60455
C         23.23309        24.56962         2.33994
C         22.04659        25.23254         2.51859
C         23.28071        27.42306         2.87246
C         22.02824        26.61673         3.14034
C         23.27085        28.77082         2.71731
C         22.02593        29.44174         2.18762
C         23.21764        31.65962         2.38414
C         22.03225        30.95715         2.27507
C         23.20318        33.17978         2.44877
C         21.97800        33.84554         1.84011
C         23.27903        35.89296         1.21891
C         22.00037        35.19058         1.45569
C         23.28024        37.36510         1.15864
C         22.05089        38.02660         0.84557
C         23.24552        40.17710         0.74160
C         22.04151        39.42305         0.57909
C         23.22975        41.55146         0.45473
C         22.07270        42.17433        -0.09263
C         23.30906        44.43474        -0.16725
C         22.21702        43.54965        -0.73408
C         23.27674        45.80745        -0.26423
C         22.03813        46.54571        -0.39618
C         23.15034        48.77339        -0.27884
C         21.95417        47.93345        -0.37723
C         23.10040        50.13825        -0.24768
C         21.79310        50.86765        -0.45528
C         23.19573        52.75615        -1.37632
C         21.98750        51.87655        -1.60724
C         23.11720        54.16807        -1.72895
C         21.95527        54.66975        -2.49302
C         23.28688        56.60389        -3.29290
C         22.03761        55.86083        -3.22006
C         23.42760        57.53309        -4.49594
C         22.15376        58.32168        -4.71795
C         23.47324        59.81074        -6.20401
C         22.26541        59.71502        -5.30377
C         23.39491         6.32439        -7.29844
C         24.78420         8.16128        -6.40600
C         23.52667         7.49467        -6.53544
C         24.92403         9.33929        -5.67205
C         23.68808        10.04864        -5.17390
C         25.16965        11.54350        -3.83669
C         23.95887        10.93497        -3.98198
C         25.32429        12.77724        -2.96055
C         24.36399        12.85950        -1.78293
C         25.63287        15.00539        -1.20787
C         24.48160        14.12229        -0.95218
C         25.58153        16.33217        -0.78030
C         24.37395        16.88904        -0.21430
C         25.75721        18.92345         0.50271
C         24.43257        18.18074         0.49985
C         25.77243        20.31575         1.08089
C         24.44918        21.01658         1.44311
C         25.82652        22.97550         2.24297
C         24.49924        22.44634         1.72718
C         25.81546        24.47332         2.57908
C         24.50564        25.18131         2.81735
C         25.79890        27.45041         2.80714
C         24.55012        26.68350         3.04943
C         25.77602        28.85569         2.84024
C         24.48464        29.58539         3.11614
C         25.71516        31.69977         2.55835
C         24.48162        31.00463         2.60640
C         25.70919        33.11681         2.19564
C         24.53187        33.78371         2.03102
C         25.74230        36.01672         1.82255
C         24.56456        35.18514         1.53834
C         25.70432        37.37567         1.63730
C         24.48029        38.06552         1.28152
C         25.62108        40.23944         1.46658
C         24.48370        39.51249         1.15413
C         25.55818        41.70573         1.48003
C         24.49554        42.31125         0.61341
C         25.62003        44.61671         0.87399
C         24.54881        43.76348         0.27526
C         25.75406        45.97320         0.33435
C         24.53847        46.58752        -0.21989
C         25.65726        48.82308         0.24745
C         24.46239        48.08269        -0.24633
C         25.61598        50.30811         0.27714
C         24.29451        51.04424         0.05279
C         25.63589        52.96157        -1.06367
C         24.37360        52.26842        -0.85237
C         25.69597        54.23386        -1.63280
C         24.41302        54.98381        -1.71743
C         26.24458        56.78477        -3.47134
C         24.31662        56.25385        -2.46690
C         25.95227        57.49832        -4.58959
C         24.72337        58.40490        -4.59523
C         24.62213        59.20968        -5.87282
C         26.16051         9.99159        -5.50374
C         27.51141        11.83020        -4.60304
C         26.29699        11.13045        -4.67357
C         27.72104        12.89580        -3.69115
C         26.78935        12.98026        -2.48793
C         27.88664        15.38585        -2.23975
C         26.94276        14.37429        -1.63089
C         27.84199        16.72154        -1.82002
C         26.74494        17.19426        -0.97820
C         27.76103        19.45434        -0.93758
C         26.78065        18.46815        -0.44887
C         27.82347        20.82679        -0.32908
C         27.07495        21.11327         0.96400
C         28.00501        23.42148         0.95010
C         26.95059        22.60155         1.26056
C         28.14589        24.74905         1.53343
C         27.03158        25.31273         2.32660
C         28.20704        27.51051         2.40445
C         26.98921        26.79030         2.44668
C         28.22336        28.88854         2.68977
C         26.99149        29.59260         2.79088
C         28.22065        31.79534         2.84058
C         26.95074        31.03188         2.75675
C         28.27026        33.19163         2.37217
C         26.99901        33.85616         1.87899
C         28.22304        36.02426         2.22723
C         26.92384        35.28746         2.42098
C         28.14083        37.48633         2.32816
C         26.97955        38.18639         1.65444
C         28.11058        40.39697         2.04967
C         26.80126        39.60900         2.18186
C         28.09144        41.80222         1.92777
C         26.78992        42.50196         1.82603
C         28.10188        44.68685         1.46380
C         26.80184        43.98136         1.53991
C         28.13470        46.04102         1.00023
C         26.92933        46.68846         0.50882
C         28.14471        48.82839         0.22039
C         26.95068        48.10563         0.25254
C         28.15664        50.22558         0.05780
C         26.91232        51.10347         0.17990
C         28.17142        52.81098        -1.14614
C         26.86715        52.06088        -1.02101
C         28.16804        54.00193        -1.85006
C         26.97357        54.71134        -2.22444
C         27.17234        55.72383        -3.17101
C         28.84110        13.69952        -3.80042
C         30.00700        15.80850        -3.40810
C         28.94402        14.95181        -3.11003
C         30.04792        17.12414        -2.88534
C         28.92461        17.60941        -2.13421
C         30.07189        19.76624        -1.82999
C         28.93450        18.95531        -1.67700
C         30.12611        21.10058        -1.26114
C         29.04999        21.61355        -0.54285
C         30.29744        23.77731        -0.16945
C         28.93732        23.08162        -0.22067
C         30.46400        24.98257         0.68500
C         29.29910        25.49393         1.42572
C         30.65961        27.44787         2.03895
C         29.43107        26.81585         2.00811
C         30.76378        28.80748         2.62982
C         29.51701        29.51525         3.17484
C         30.78353        31.78663         2.61186
C         29.54067        31.06208         3.01832
C         30.74752        33.24444         2.49315
C         29.45298        33.90890         2.39844
C         30.66952        36.13447         2.19258
C         29.43062        35.37182         2.26429
C         30.67322        37.54586         2.19868
C         29.41432        38.28187         2.39302
C         30.57432        40.44936         1.97411
C         29.35362        39.73290         2.10063
C         30.54986        41.86767         1.90573
C         29.29674        42.55746         1.89870
C         30.52331        44.79577         2.06019
C         29.27698        43.99557         1.76681
C         30.55427        46.14392         1.36150
C         29.37106        46.73160         0.90064
C         30.65346        48.86939         0.43320
C         29.43013        48.03717         0.12875
C         30.62835        50.21976         0.13691
C         29.39574        50.90048        -0.17602
C         29.37433        52.20513        -0.70357
C         31.16332        17.95694        -3.09402
C         32.40984        20.00789        -2.60886
C         31.22113        19.25041        -2.53387
C         32.52799        21.25775        -1.95428
C         31.37534        21.83141        -1.32431
C         32.76434        23.66292        -0.47442
C         31.51545        23.05937        -0.62988
C         33.01604        24.72994         0.57303
C         31.79173        25.48628         1.02810
C         33.11641        27.48090         1.57217
C         31.88684        26.77811         1.58608
C         33.01432        28.96831         1.39447
C         31.98554        29.60085         2.31131
C         33.22343        31.77966         2.18670
C         31.93937        31.08369         2.35463
C         33.20905        33.28589         2.16900
C         31.91060        33.98145         2.24220
C         33.09200        36.16450         1.86548
C         31.90465        35.42824         2.07511
C         33.08188        37.58809         1.72660
C         31.85872        38.29142         1.94425
C         33.03239        40.44922         1.70098
C         31.83138        39.73196         1.88475
C         33.02230        41.89604         1.71563
C         31.79025        42.60315         1.81290
C         33.00431        44.72502         1.77742
C         31.79817        44.02129         1.84107
C         33.02087        46.23113         1.90840
C         31.78188        46.87272         1.32684
C         31.82354        48.19380         0.89443
C         33.76987        21.93098        -1.88488
C         35.18807        23.74417        -0.99661
C         33.92072        23.10765        -1.12108
C         35.35195        25.00936        -0.37082
C         34.09765        25.72495         0.09643
C         35.53691        27.65716         0.76165
C         34.39913        26.76557         1.19737
C         35.52503        28.99389         0.99635
C         34.33056        29.70184         1.41963
C         35.46217        31.84467         0.94707
C         34.37621        31.05730         1.59718
C         35.48442        33.31165         1.11527
C         34.37538        33.98703         1.58397
C         35.52465        36.19551         1.06116
C         34.37488        35.44823         1.72250
C         35.44069        37.65836         0.82161
C         34.25038        38.34203         1.34757
C         35.51882        40.46196         1.33743
C         34.25777        39.74585         1.42656
C         35.57416        41.93603         1.67063
C         34.23610        42.62649         1.65419
C         34.21684        44.01901         1.68134
C         36.58967        25.60111        -0.24424
C         37.60300        27.82072        -0.68798
C         36.83434        26.96923         0.34244
C         38.42574        28.82563        -0.43066
C         36.77609        29.81404         1.07840
C         37.92655        31.90587        -0.07819
C         36.70331        31.14384         0.39575
C         37.88789        33.39871         0.08956
C         36.61505        34.02840         0.57018
C         38.32588        36.47090         0.32674
C         36.46614        35.36625         0.32593
C         38.08405        37.68829         0.89782
C         36.80001        38.42471         0.72396
C         36.71399        39.82521         1.13762
C         39.38435        29.70348        -0.19308
C         40.28586        31.89849         0.71450
C         39.31497        31.22928        -0.24000
C         40.24725        33.23292         0.92368
C         39.17096        34.11026         0.45883
C         39.33016        35.46763         0.64471
O         30.23213        25.09758        -0.83979
O         24.09062        35.28517         0.14055
O         23.15294        10.73449        -1.66457
O         25.76157        44.64593         2.34120
O         28.89678        31.68457         4.16120
O         35.51529        35.93445         2.51131
O         33.59000        32.55551         3.39411
O          8.85337        28.79094         2.13864
O         25.07853        42.76510        -0.67079
O         11.62090        26.52286        -0.05786
O         17.62462        24.60463         4.36835
O         25.26731        20.25608         2.42443
O         23.53184        54.98349        -0.55936
O         18.94798        26.95370         4.48256
O         28.62922        37.97299         3.61476
O         18.98968        22.14095         0.57761
O         22.71655        13.84436         0.71830
O         14.00507        22.59096         0.56080
O         18.88425        29.41800         4.21039
O         20.47340        19.80241        -0.38341
O         15.37015        41.43255        -2.60454
O         27.15492        11.92685        -1.67730
O         24.90138        12.79647        -0.46315
O         24.75673        47.34444        -1.47832
O         24.50092        25.74297         4.17887
O         16.44941        22.37567         4.14843
O         25.48442        49.55242         1.53870
O         25.43435        57.07659        -2.33551
O         14.48919        30.40615        -0.33177
O         27.02840        20.62043        -1.53757
O         37.61917        29.56925         1.94463
O         20.09813        45.91316         0.95411
O         16.77665        47.14235         0.54217
O         35.56507        31.35991        -0.45981
O         25.78180        42.19320         2.85863
O         31.88000        28.92846         3.60169
O         16.16422        16.81015        -0.57065
O         18.92461        31.71316         3.69254
O         26.78763        24.69866         3.65368
O         35.96829        38.12154        -0.43925
O         37.68619        32.77719        -1.22725
O         37.34427        35.97919        -0.56958
O         20.34982        44.22651        -2.19053
O         14.25077        37.50918         1.07605
O         25.43123        17.99089         1.57576
O         20.10506        13.61189        -2.90664
H         20.58309        13.46468        -3.74985
O         16.01354        36.66992        -2.03976
H         16.28843        37.49941        -2.48758
O         17.67547        33.84380         3.28486
H         18.12081        33.37157         4.02953
O         13.14721        23.27682        -0.37936
H         12.41544        22.63078        -0.53439
O         23.34106        23.77465         0.10787
H         23.06085        23.03758        -0.47717
O         22.63509        43.23334        -2.09631
H         22.78164        44.07632        -2.57609
O         29.49124        29.23686         4.59320
H         30.41382        29.33246         4.92220
O         16.35318        26.79882         4.66191
H         17.08566        26.50849         5.25828
O         26.43221        39.54698         3.57553
H         26.21947        40.46857         3.85518
O         27.04518        51.89804         1.37392
H         26.83827        51.31735         2.13723
O         22.06010        29.14620         0.73001
H         22.05355        28.17112         0.61609
O         22.26912        51.07448        -2.79286
H         22.26855        51.66630        -3.57377
O         24.36659        29.71702         4.57774
H         24.43417        28.81970         4.96969
O         27.55833        13.96918        -0.39211
H         27.56112        12.96124        -0.42875
O         28.22180        23.62506        -1.37110
H         28.66448        24.48018        -1.59511
O         14.03195        29.80371         3.20147
H         13.86265        28.97664         3.71828
O         19.05267        22.39305         4.17145
H         18.46062        22.70410         4.89441
O         20.51096        31.31724         0.44739
H         21.11277        30.57774         0.18534
O         21.98691        26.43631         4.58501
H         22.83660        26.00137         4.84689
O         26.70300        35.19968         3.85144
H         26.92482        36.06681         4.25436
O         29.55494        47.65248        -1.28503
H         30.40294        47.17022        -1.38243
O         19.10987        35.05268        -0.85580
H         18.51310        35.23819        -1.61180
O         27.11175        33.97981         0.43321
H         26.87327        33.12223         0.02465
O         18.83083        39.37414        -2.32730
H         19.46466        40.04051        -2.69687
O         13.70182        32.58058        -1.52434
H         14.29212        31.81022        -1.69769
O         15.67624        12.09044        -0.86828
H         15.50814        12.61349        -1.67866
O         26.13880        22.28174         3.48309
H         26.65256        22.91923         4.03577
O         16.27227        24.27984         1.09823
H         15.52272        23.91020         0.56900
O         18.99458        36.03201         2.67555
H         18.31728        35.45374         3.11690
O         24.94538        13.90261        -3.80924
H         25.36888        13.78249        -4.68631
O         34.92174        26.09697         2.38694
H         35.90924        26.08537         2.32884
O         24.75882        59.34559        -3.50066
H         24.98288        58.83592        -2.68517
O         13.78569        26.99096         3.72889
H         14.44882        26.85440         4.45239
O         33.50622        23.97293         1.71304
H         34.00162        24.59848         2.30231
O         20.20104        41.68995        -2.52420
H         20.99174        42.25998        -2.70979
O         33.55986        26.49682        -1.00748
H         33.22478        25.87122        -1.68533
O         21.41383        51.59264         0.73163
H         22.24580        51.91889         1.16240
O         14.27719        26.65576         0.12614
H         13.63239        26.70660        -0.61512
O         19.94848        11.77369         0.23366
H         19.41572        11.92292         1.04116
O         13.88548        22.19157         4.17749
H         14.61302        21.99703         4.81142
O         23.99627        51.65137         1.35851
H         24.21872        50.97101         2.03643
O         23.54008        56.61206        -5.62828
H         22.67890        56.15249        -5.72403
O         19.96547        17.80568         2.65839
H         19.32981        17.17571         3.05800
O         23.07444        33.50423         3.87547
H         23.74007        32.97370         4.36549
O         22.39415        60.65894        -4.22502
H         23.25001        60.45500        -3.77214
O         34.20594        46.79052         1.33896
H         34.21176        46.59551         0.37997
O         23.32604        10.99794        -6.25371
H         23.17052        10.46587        -7.06361
O         37.61003        26.79555         1.55239
H         37.83513        27.69868         1.89389
O         30.48072        45.08626         3.50672
H         29.60919        45.49349         3.69950
O         32.50150        29.15361         0.02811
H         32.92428        28.47031        -0.54564
O         26.75641        51.19149        -2.18665
H         26.93136        51.72776        -2.98813
O         27.93107        20.60154         2.01809
H         27.41409        20.70143         2.85467
O         27.36422        38.33884         0.25511
H         27.20672        37.48809        -0.20692
O         36.16896        42.10677         2.97596
H         35.54609        41.75116         3.64288
O         39.82379        31.53965        -1.56009
H         39.21097        32.21018        -1.95339
H          5.16145        30.77218         0.19223
H          5.17031        33.22001        -0.03960
H          7.63266        26.28996         0.26329
H          6.17969        28.78747         0.15440
H          6.38196        35.32193        -0.17268
H          7.58876        37.45459        -0.41515
H          9.96391        22.30911         1.95548
H          8.78549        24.32140         1.34961
H          8.81771        39.58922        -0.69005
H         10.02117        41.69794        -0.97962
H         12.40824        18.07943         1.88999
H         11.17331        20.18676         2.25084
H         11.22001        43.82092        -1.25049
H         12.39360        45.98294        -1.35376
H         14.86601        13.95674         0.44771
H         13.62780        16.02139         1.38690
H         13.61605        48.11566        -1.65333
H         14.87748        50.21902        -2.11289
H         16.94632        10.74368        -2.41250
H         17.06251        11.93254         0.64003
H         16.13070        52.27050        -2.58298
H         17.41247        54.23992        -3.32050
H         19.01985         7.31060        -5.35659
H         17.98217         9.01707        -3.85128
H         18.72213        56.22790        -4.07445
H         20.02179        58.26344        -4.69042
H         22.08634         4.74230        -7.99359
H         20.08646         5.59077        -6.78921
H         23.40373        60.41684        -7.12026
H         21.33141        59.97283        -5.86337
H         24.26965         5.92653        -7.83263
H         25.67238         7.70702        -6.87201
H         26.50001        57.32514        -5.52651
H         25.51165        59.29809        -6.51571
H         27.05748         9.57946        -5.99130
H         28.31030        11.58029        -5.32010
H         29.13255        54.47249        -2.09648
H         28.15958        55.75390        -3.65949
H         29.59995        13.47014        -4.56624
H         30.82427        15.45784        -4.05494
H         31.55566        50.81109         0.19013
H         30.32425        52.73514        -0.87162
H         32.02822        17.57191        -3.65367
H         33.28726        19.58041        -3.11618
H         33.05086        46.47646         3.00623
H         32.76870        48.75118         0.98107
H         34.64586        21.49464        -2.38671
H         36.07006        23.25259        -1.43394
H         36.26293        42.44840         0.95015
H         35.16238        44.57996         1.65966
H         37.47830        25.04965        -0.58829
H         37.40065        27.57848        -1.74762
H         38.79979        38.10562         1.62061
H         37.64869        40.38923         1.27784
H         40.41925        29.31642        -0.13257
H         41.13545        31.31386         1.09830
H         41.05914        33.71193         1.49392
H         40.27119        35.81199         1.10388
