         244
 CSIRO Nanostructure Databank - Neutral Graphene Oxide Data Set
C          1.42894         1.99139        -1.26399
C          1.32554         3.34932        -1.08155
C          2.62251         1.28148        -0.98678
C          2.40369         4.09481        -0.42522
C          1.24398         6.31035        -0.36093
C          1.25551         7.72479        -0.49292
C          2.40109         5.58480        -0.49289
C          2.43839         8.44012        -0.64661
C          1.39272        10.57338         0.19930
C          1.43536        11.90321         0.48832
C          2.36322         9.94602        -0.78249
C          2.48114        12.75642         0.01508
C          1.33547        14.86467         0.66928
C          1.35227        16.23223         0.88780
C          2.47726        14.15995         0.16066
C          2.45918        17.03200         0.53395
C          2.50106        18.40985         0.82988
C          3.79690         1.93967        -0.58616
C          3.70225         3.36139        -0.17025
C          5.03782         1.27697        -0.55462
C          4.98440         4.16663         0.05187
C          3.65793         6.28737        -0.79970
C          3.68580         7.76371        -0.76471
C          4.96645         5.53427        -0.65337
C          4.92675         8.46975        -0.79891
C          3.70085        10.62938        -0.66655
C          3.65302        12.13654        -0.71196
C          4.90205         9.94638        -0.71846
C          4.93271        12.80990        -0.29641
C          3.67314        14.91763        -0.12868
C          3.54336        16.41789        -0.32004
C          4.90840        14.24678        -0.22334
C          4.86802        17.18158        -0.23710
C          3.64320        19.17825         0.64545
C          4.87894        18.58500         0.24931
C          6.26535         1.98992        -0.41940
C          6.22026         3.40322        -0.35470
C          7.51530         1.29998        -0.30142
C          7.41603         4.17764        -0.56701
C          6.21408         6.33690        -0.58028
C          6.15454         7.76246        -0.77649
C          7.41089         5.64354        -0.46852
C          7.45003         8.46319        -0.85003
C          6.13141        10.68472        -0.52378
C          6.12352        12.08540        -0.21828
C          7.41406        10.03705        -0.69624
C          7.39043        12.81181        -0.07244
C          6.15765        14.95791        -0.14142
C          6.17535        16.43005        -0.17861
C          7.37137        14.27503        -0.02128
C          7.37896        17.13335         0.29349
C          6.08410        19.25957         0.37041
C          7.35793        18.58128         0.40318
C          8.72475         1.97474        -0.06747
C          8.77719         3.42469        -0.35606
C          9.93101         1.33141         0.28487
C          9.87725         4.23917         0.19078
C          8.74678         6.30801        -0.65720
C          8.66942         7.80036        -0.48361
C          9.87859         5.62831         0.09889
C          9.99336         8.51489        -0.58418
C          8.60248        10.63763         0.03362
C          8.58603        12.14182        -0.05037
C          9.92018        10.00709        -0.30633
C          9.86553        12.89217        -0.29554
C          8.58286        15.00237         0.24443
C          8.53932        16.40357         0.54304
C          9.84231        14.30543         0.23462
C          9.75875        17.10247         1.03121
C          8.52431        19.28264         0.65132
C          9.78629        18.63236         1.15092
C         11.08989         2.05411         0.69834
C         10.95110         3.52578         0.87287
C         12.27529         1.43512         1.05319
C         12.25483         4.34410         1.12912
C         11.04350         6.38882         0.41810
C         10.98144         7.89617         0.41761
C         12.24804         5.75188         0.73659
C         12.32790         8.56651         0.29050
C         11.09610        10.68877        -0.09654
C         11.11852        12.12837         0.04531
C         12.34623         9.95671         0.09757
C         12.30120        12.79492         0.24085
C         11.02648        14.95647         0.47601
C         11.06022        16.37694         0.87156
C         12.31143        14.22082         0.70853
C         12.31032        17.12447         0.64602
C         11.04240        19.24334         0.57541
C         12.26137        18.54520         0.46041
C         13.45813         2.17370         1.64438
C         13.50997         3.60896         1.17632
C         14.72578         1.44168         1.33128
C         14.70242         4.26104         0.87047
C         13.51592         6.42412         0.63578
C         13.53310         7.85264         0.45074
C         14.71826         5.69634         0.65905
C         14.77683         8.54536         0.44604
C         13.56774        10.66058         0.23088
C         13.57289        12.10938         0.20795
C         14.76933         9.95741         0.41328
C         14.75520        12.82033         0.07966
C         13.51717        15.00349         0.29377
C         13.52414        16.40861         0.38989
C         14.69715        14.29252        -0.29539
C         14.74418        17.12134         0.15859
C         13.46963        19.22070         0.10981
C         14.71366        18.54397        -0.01452
C         15.90779         2.09011         0.96155
C         15.93734         3.52671         0.79889
C         17.12184         1.36128         0.78846
C         17.15661         4.18843         0.49942
C         15.97592         6.37582         0.48001
C         16.01140         7.79807         0.43677
C         17.19369         5.64676         0.38556
C         17.25568         8.46776         0.34349
C         16.02498        10.71312         0.54797
C         16.03763        12.15678         0.17782
C         17.30471         9.94057         0.47101
C         17.22888        12.81911         0.00983
C         16.00273        14.96624         0.00289
C         16.06720        16.41930         0.34658
C         17.21826        14.24036        -0.50167
C         17.18112        17.03572        -0.48133
C         15.92138        19.25916        -0.24193
C         17.12852        18.57709        -0.66764
C         18.32499         2.01571         0.47677
C         18.33237         3.43687         0.32583
C         19.56227         1.29660         0.35157
C         19.55226         4.11856        -0.23778
C         18.42124         6.33454         0.24561
C         18.46050         7.74786         0.25537
C         19.71807         5.55149         0.28927
C         19.76188         8.48739         0.29605
C         18.48823        10.67123        -0.12535
C         18.54602        12.14337         0.34694
C         19.79616         9.94540         0.08001
C         19.77201        12.83194        -0.21718
C         18.52160        14.97164        -0.31996
C         18.50132        16.35706        -0.45677
C         19.75715        14.24566        -0.38951
C         19.69507        17.09268        -0.70806
C         18.41712        19.23198        -0.77553
C         19.63349        18.52810        -0.86289
C         20.77181         1.95904         0.15390
C         20.83184         3.34586        -0.04623
C         22.06794         4.05928        -0.15210
C         20.89331         6.27000        -0.43742
C         21.05486         7.71133         0.04950
C         22.13534         5.41566        -0.30088
C         22.20560         8.50599        -0.39519
C         20.97643        10.62671        -0.15140
C         20.96242        12.09674        -0.35250
C         22.19001         9.86527        -0.37016
C         22.14604        12.81470        -0.66702
C         20.96597        14.95504        -0.65709
C         20.93927        16.40119        -0.80222
C         22.15154        14.19434        -0.79160
C         22.11302        17.15543        -1.02805
C         20.85510        19.23289        -1.05979
C         22.06108        18.54971        -1.14269
O          4.35397         5.61167        -1.96148
O         11.29678         4.01445         2.20257
O          8.28979         3.72461        -1.66774
O          5.64515        17.00259        -1.46554
O         20.62472         8.01052         1.40804
O         16.80945        10.40125         1.77332
O         16.83193        17.54603        -1.75915
O          7.64197         9.42667        -1.98138
O          2.75035         3.56389         0.93290
O         10.39448        16.50713         2.22883
O          3.44849        12.48062        -2.15180
H          4.25180        12.18685        -2.63380
O         20.07600         5.39915         1.67944
H         20.23906         6.30584         2.03927
O         14.46147        14.31504        -1.75318
H         15.32005        14.03429        -2.16508
O          1.83387        10.21624        -2.11985
H          2.10678        11.13838        -2.35438
O         13.28940         2.21020         3.10959
H         12.49284         2.76835         3.27468
O          9.82668        18.97405         2.57996
H         10.21975        18.18917         3.03352
O          9.10398         6.13616        -2.07700
H          8.29147         6.27284        -2.60929
O         20.61051         6.44237        -1.84762
H         20.25934         5.58427        -2.19115
O          3.07105        16.58243        -1.69763
H          3.87551        16.55004        -2.26596
O         18.22683        10.67143        -1.55719
H         18.94162        11.17773        -1.99868
O          8.39279        10.29409         1.45269
H          9.07397         9.62440         1.71423
O         19.29714         4.16912        -1.68892
H         19.24434         3.24308        -2.00817
O         12.42802        14.11972         2.18970
H         11.91575        14.86288         2.58099
O         16.48237        16.60772         1.75356
H         15.89964        16.05447         2.31559
O         17.11479        14.12969        -1.99081
H         17.21387        15.04030        -2.34940
O          5.10282         4.46475         1.46952
H          4.22635         4.24795         1.87192
O         10.55100         8.35031        -1.90949
H          9.86365         8.62964        -2.55177
O         10.44201         8.26744         1.73548
H         11.02532         7.88467         2.42524
O         18.73543        12.20019         1.77962
H         18.01345        11.66349         2.19378
O          9.92814        13.03242        -1.76521
H          9.14006        13.54375        -2.04836
H          0.58688         1.44243        -1.70966
H          0.44482         3.89556        -1.44719
H          2.67055         0.20828        -1.22135
H          0.28962         5.79864        -0.17194
H          0.29532         8.25607        -0.46131
H          0.57077         9.96562         0.60515
H          0.64918        12.33097         1.12920
H          0.43085        14.29985         0.93257
H          0.48606        16.71252         1.36785
H          1.61283        18.87467         1.28423
H          5.06885         0.19335        -0.74127
H          3.63950        20.23814         0.93834
H          7.49327         0.20280        -0.22650
H          6.06878        20.32543         0.64580
H          9.96115         0.23180         0.30850
H          8.48120        20.38081         0.71515
H         12.35417         0.34246         0.94540
H         11.04435        20.33237         0.41546
H         14.73990         0.35031         1.47513
H         13.43976        20.30894        -0.04946
H         17.11565         0.26966         0.92386
H         15.93736        20.35254        -0.13069
H         19.55427         0.20699         0.49581
H         18.44895        20.32822        -0.68109
H         21.71010         1.38416         0.18262
H         23.00183         3.47914        -0.07945
H         23.12105         5.89776        -0.38303
H         23.09751         7.98059        -0.76671
H         23.10217        10.39828        -0.67090
H         23.09927        12.28284        -0.78520
H         23.10555        14.69572        -1.00431
H         23.08819        16.65546        -1.09777
H         20.83048        20.32677        -1.16576
H         22.99282        19.11008        -1.30381
