         658
 CSIRO Nanostructure Databank - Neutral Graphene Oxide Data Set
C          7.34594        31.31776         4.07758
C          7.34172        32.67381         4.21558
C          9.37294        27.17004         2.30260
C          9.41361        28.57127         2.51111
C          8.37426        29.23863         3.20239
C          9.56104        31.35201         2.95617
C          8.42789        30.61992         3.40962
C          9.67844        32.77284         3.33187
C          8.45094        33.47950         3.76900
C          9.40260        35.66776         3.10985
C          8.35801        34.84746         3.65330
C          9.19243        37.01881         2.93635
C         11.30833        22.99069         0.79392
C         11.26814        24.40207         0.71304
C         10.32381        25.09430         1.44876
C         11.43703        27.25332         0.95088
C         10.35758        26.51458         1.56220
C         11.50758        28.64969         1.19832
C         10.51852        29.31397         1.99281
C         11.67817        31.49006         1.66207
C         10.59778        30.71816         2.23779
C         11.75204        32.89197         1.85898
C         10.85256        33.57266         2.82311
C         11.55634        35.80041         1.80414
C         10.82137        35.11794         2.93594
C         11.20004        37.21575         1.44442
C         10.23840        37.85448         2.41724
C         11.58087        39.91090         2.53558
C         10.35982        39.18420         2.75495
C         11.68768        41.26154         2.79086
C         13.52482        18.75206        -0.09213
C         13.48306        20.13999        -0.11042
C         12.40318        20.84965         0.44503
C         13.46882        22.84742        -0.54648
C         12.34770        22.24175         0.26048
C         13.38842        24.34338        -0.79554
C         12.25281        25.13343        -0.12278
C         13.40042        27.32957        -0.54997
C         12.40668        26.59878         0.11724
C         13.38160        28.76636        -0.38429
C         12.52848        29.41381         0.56237
C         13.64178        31.59407         0.16934
C         12.61212        30.83188         0.78810
C         13.70084        33.01791         0.36139
C         12.70577        33.66748         1.16110
C         13.65274        35.82950         0.52839
C         12.62818        35.11191         1.16330
C         13.55112        37.33177         0.46332
C         12.53564        37.86344         1.42804
C         13.95386        39.93025         1.68594
C         12.82578        39.08549         2.25013
C         14.05460        41.24785         2.08843
C         12.93026        41.97946         2.64692
C         14.17603        44.13441         2.67787
C         13.00112        43.35502         2.90136
C         14.25874        45.51933         2.81567
C         15.83063        14.46604        -0.58402
C         15.80191        15.86791        -0.79498
C         14.60049        16.62497        -0.55473
C         15.66280        18.71842        -1.40549
C         14.58279        18.00230        -0.66519
C         15.64175        20.22401        -1.47819
C         14.50178        20.98862        -0.82344
C         16.03208        23.06500        -0.52515
C         14.82017        22.31105        -0.14010
C         15.89013        24.49461        -0.94331
C         14.63344        25.11032        -1.04124
C         15.76572        27.28105        -1.62435
C         14.41708        26.57127        -1.48291
C         15.86813        28.58721        -2.03589
C         14.17460        29.66263        -1.15759
C         15.63737        31.66608        -1.45556
C         14.49420        30.96097        -0.78501
C         15.77671        33.12467        -1.07068
C         14.73866        33.76528        -0.22561
C         15.95236        35.91946        -0.32554
C         14.76828        35.17981        -0.05305
C         16.02484        37.31668        -0.06579
C         14.89843        38.00082         0.48428
C         16.26215        40.02349         0.69801
C         15.04153        39.30198         0.96459
C         16.44268        41.32714         1.20015
C         15.36548        41.91758         2.01632
C         16.59907        44.12159         1.89318
C         15.41122        43.40316         2.33841
C         16.52048        45.59302         1.69970
C         15.41225        46.28132         2.42792
C         16.48403        48.48743         1.97128
C         15.44641        47.66297         2.52807
C         16.48748        49.85576         2.22582
C         18.23429        10.10318        -0.45818
C         18.16597        11.48822        -0.92028
C         16.98610        12.30617        -0.68743
C         18.26997        14.40353        -0.98500
C         17.01398        13.69967        -0.79859
C         18.28021        15.90149        -0.77753
C         16.98100        16.56654        -1.09634
C         18.22397        18.74408        -1.53664
C         16.94700        17.93279        -1.73271
C         18.20233        20.10204        -1.69816
C         16.93676        20.97703        -1.83212
C         18.32317        23.06630        -1.67461
C         17.25707        22.24559        -0.95792
C         18.33356        24.45566        -1.59870
C         17.10109        25.14358        -1.33402
C         18.31736        27.33869        -1.88072
C         17.00973        26.53127        -1.75759
C         18.25588        28.78971        -1.71165
C         17.04095        29.41713        -1.87730
C         18.22676        31.67401        -1.83301
C         16.91069        30.91899        -1.89159
C         18.23727        33.08873        -1.39120
C         17.10970        33.76573        -1.05478
C         18.35689        35.94463        -0.99668
C         17.23230        35.13597        -0.41308
C         18.35594        37.30322        -0.86739
C         17.24521        38.02605        -0.29533
C         18.49476        40.21301        -0.37277
C         17.34689        39.42053        -0.00923
C         18.67976        41.54385         0.08344
C         17.64984        42.03424         0.99354
C         19.17879        44.56726         0.50616
C         17.69586        43.34274         1.58232
C         18.80351        45.86768         0.37964
C         17.58735        46.43208         1.02557
C         18.52567        48.69372         0.56943
C         17.56784        47.90950         1.18190
C         18.33575        50.20488         0.54438
C         17.50564        50.70682         1.70927
C         18.82005        52.78704         1.86544
C         17.65979        51.99364         2.17791
C         18.93393        54.12254         2.35582
C         20.55665         6.01684         1.05656
C         20.61525         7.41567         0.46880
C         19.45734         8.06873         0.13082
C         20.69855        10.19839        -0.26299
C         19.44172         9.46027        -0.25869
C         20.73967        11.57235        -0.58014
C         19.52515        12.25460        -1.04134
C         20.73569        14.42417        -0.96865
C         19.47623        13.72434        -0.97184
C         20.72989        15.82325        -1.42367
C         19.48471        16.61345        -1.33717
C         20.77130        18.71452        -1.44906
C         19.47829        17.97506        -1.50292
C         20.76073        20.20630        -1.60779
C         19.46879        20.84007        -1.98764
C         20.81997        23.07691        -2.43477
C         19.49472        22.33702        -2.18121
C         20.82222        24.52595        -2.01461
C         19.58109        25.20906        -1.82225
C         20.78995        27.36507        -1.78708
C         19.58241        26.60935        -1.70099
C         20.78794        28.78196        -1.71666
C         19.52196        29.49956        -1.29611
C         20.73158        31.63717        -1.77219
C         19.52176        30.95128        -1.68316
C         20.74664        33.06873        -1.85615
C         19.56651        33.79725        -1.26792
C         20.75211        35.92770        -1.84363
C         19.42062        35.22368        -1.78719
C         20.82071        37.40869        -1.53351
C         19.46508        38.08253        -1.44875
C         20.78366        40.25241        -1.52135
C         19.49913        39.56405        -1.24638
C         20.67433        41.72970        -1.50070
C         19.74283        42.37750        -0.54061
C         20.78950        44.56620        -1.27749
C         19.87517        43.77825        -0.47988
C         20.60275        46.03570        -1.42084
C         19.50230        46.69339        -0.63204
C         20.70782        48.83802        -0.63135
C         19.59766        48.12993        -0.25839
C         20.83092        50.27643        -0.25024
C         19.66058        50.95600         0.38559
C         21.14191        52.87819         1.03063
C         19.87643        52.20844         1.14509
C         21.19702        54.28412         1.41665
C         20.04701        54.90026         2.06471
C         21.19705        57.08166         2.13872
C         20.13765        56.26784         2.49639
C         21.29392        58.44580         2.54497
C         23.17539         3.27778         1.60253
C         21.96287         3.89584         1.49262
C         23.18475         6.06891         0.98120
C         21.88163         5.26774         0.98200
C         23.02835         7.54336         1.01245
C         21.85492         8.15382         0.51052
C         23.06909        10.32132         0.42224
C         21.87685         9.55265         0.21671
C         23.07218        11.70303         0.14440
C         21.92505        12.34001        -0.36304
C         23.17773        14.50383        -0.62575
C         21.93595        13.76685        -0.68334
C         23.25887        15.84650        -0.96546
C         22.07225        16.54952        -1.47397
C         23.27859        18.70802        -1.47747
C         22.06433        18.01586        -1.47412
C         23.28173        20.15800        -1.82983
C         22.03029        20.94738        -1.81533
C         23.30001        23.06968        -1.94716
C         22.05971        22.31097        -1.99475
C         23.30012        24.47638        -2.14505
C         22.03472        25.22173        -2.18641
C         23.03852        27.48098        -2.61481
C         21.98942        26.67092        -2.15403
C         23.21259        28.84751        -2.26169
C         21.99111        29.51709        -1.88578
C         23.21610        31.64824        -2.03598
C         21.99827        30.94099        -1.86473
C         23.19288        33.07759        -2.13360
C         21.92318        33.76442        -2.09940
C         23.15124        35.94825        -2.39472
C         21.88331        35.22674        -2.13756
C         23.12245        37.43455        -2.50625
C         21.74950        38.14507        -2.49528
C         23.02768        40.35053        -2.57821
C         21.83512        39.61852        -2.12308
C         23.10635        41.81281        -2.41329
C         21.84706        42.52183        -2.07965
C         23.06898        44.73215        -2.18298
C         21.90478        43.96686        -1.83362
C         23.08145        46.12297        -2.06671
C         21.72904        46.85729        -2.07952
C         23.07189        49.08448        -1.68335
C         21.77419        48.31479        -1.54399
C         23.29846        50.34802        -0.89874
C         22.22363        50.76533         0.09960
C         23.53775        52.89979         0.43460
C         22.23916        52.23551         0.45146
C         23.55849        54.41894         0.75818
C         22.30400        55.06039         1.12902
C         23.49889        57.31185         1.05836
C         22.15803        56.56853         1.08182
C         23.73068        58.41121         2.08003
C         22.46871        59.18082         2.39684
C         23.77474        61.24187         2.56930
C         22.56683        60.55929         2.70273
C         24.40656         3.97254         1.38367
C         25.75698         6.00263         1.06286
C         24.46717         5.34649         1.23401
C         25.96278         7.31000         1.44558
C         24.06731         8.38126         1.44193
C         25.51395        10.37971         1.08244
C         24.22908         9.71173         1.02227
C         25.51986        11.79733         0.88858
C         24.19732        12.54654         0.69537
C         25.47600        14.69516         0.34724
C         24.43692        13.76301        -0.23756
C         25.58363        16.04912        -0.18407
C         24.47681        16.63743        -0.80215
C         25.79940        18.71745        -1.25865
C         24.49497        18.01674        -1.20924
C         25.86309        20.22074        -1.48665
C         24.58198        20.93582        -1.80055
C         25.67692        23.08717        -1.22263
C         24.52573        22.39663        -1.63102
C         25.67742        24.51169        -1.36079
C         24.57898        25.13166        -2.01855
C         25.87140        27.27585        -2.10281
C         24.84102        26.43242        -2.51002
C         25.80560        28.74644        -2.58624
C         24.47850        29.50883        -2.26666
C         25.68624        31.69999        -2.07222
C         24.47807        30.92710        -2.10986
C         25.66133        33.11159        -1.98498
C         24.41419        33.82128        -2.08843
C         25.60376        36.00135        -1.99343
C         24.41632        35.24667        -2.10286
C         25.60980        37.44693        -2.00026
C         24.30361        38.20042        -1.95240
C         25.58147        40.35855        -2.34055
C         24.38885        39.58991        -2.55139
C         25.60830        41.78304        -2.84505
C         24.28424        42.49348        -2.52719
C         25.57923        44.72444        -2.62226
C         24.26354        43.97688        -2.60904
C         25.52919        46.16967        -2.30491
C         24.32210        46.84833        -2.18721
C         25.58699        48.99711        -1.77973
C         24.28478        48.37838        -2.33962
C         25.59149        50.53385        -1.89905
C         24.44263        51.08435        -1.04995
C         25.77178        53.14967        -0.56867
C         24.63035        52.38262        -0.40759
C         25.84795        54.53185        -0.13656
C         24.70883        55.19248         0.29060
C         26.06363        57.27107         0.78335
C         24.73795        56.63860         0.56654
C         26.09366        58.60510         1.25100
C         24.94817        59.24972         1.75404
C         24.93961        60.61066         2.09797
C         26.95996         8.27317         1.09234
C         28.06902        10.41588         0.88318
C         26.77167         9.65371         1.11108
C         27.98909        11.90582         1.08068
C         26.70926        12.54395         0.95956
C         27.96296        14.77584         0.97245
C         26.69349        14.01685         0.93068
C         27.97990        16.10639         0.65276
C         26.72547        16.89069         0.31632
C         28.26974        18.82077        -0.48519
C         26.99762        18.04860        -0.62612
C         28.29725        20.30898        -0.75416
C         27.01463        21.00625        -0.98851
C         28.01309        23.17111        -0.33464
C         26.91713        22.39302        -0.85851
C         27.77068        24.64056        -0.05173
C         26.81337        25.29843        -1.01559
C         28.27976        27.31521        -1.24103
C         26.91585        26.65844        -1.35257
C         28.25089        28.83899        -1.44610
C         27.05988        29.50762        -2.11539
C         28.20752        31.77558        -1.60213
C         26.99423        31.01504        -2.10939
C         28.07167        33.22836        -1.39446
C         26.86435        33.88134        -1.75285
C         28.01536        36.06199        -1.51129
C         26.83152        35.30700        -1.75815
C         28.01662        37.48992        -1.61052
C         26.77571        38.17950        -1.84251
C         28.01584        40.41810        -1.86203
C         26.71338        39.69163        -1.61707
C         28.03032        41.77441        -2.10088
C         26.83107        42.56118        -2.37850
C         28.04539        44.72780        -2.21975
C         26.83831        43.95273        -2.40880
C         28.08750        46.11856        -2.30298
C         26.82483        46.88112        -2.46912
C         28.16253        49.13359        -2.30405
C         26.84039        48.37007        -2.38735
C         28.12390        50.28739        -1.28502
C         26.90137        51.13042        -1.44695
C         28.26095        53.20136        -0.91812
C         26.94070        52.62517        -1.37757
C         28.29555        54.53840        -0.47372
C         27.12398        55.24456        -0.15020
C         27.19686        56.56624         0.36377
C         29.14511        12.62296         1.30362
C         30.34243        14.76189         1.62431
C         29.18423        14.06696         1.33860
C         30.36839        16.22582         1.63353
C         29.16530        16.91282         1.00414
C         30.60667        19.01161         0.72056
C         29.40583        18.21761         0.30797
C         30.52551        20.48573         0.64109
C         29.43799        21.13743        -0.12822
C         30.19636        23.33294         0.82299
C         29.18178        22.57179         0.13410
C         30.10298        24.77322         0.86151
C         29.02283        25.42683         0.21749
C         30.15148        27.57007         0.44374
C         29.09800        26.79980        -0.07714
C         30.43681        28.96008        -0.08861
C         29.26275        29.67597        -0.74188
C         30.34808        31.88056        -0.32328
C         29.29901        31.05723        -0.89149
C         30.36026        33.27212        -0.47361
C         29.20625        33.96024        -1.00719
C         30.36781        36.12882        -0.80285
C         29.19896        35.38325        -1.10982
C         30.39412        37.52376        -1.04827
C         29.23365        38.20213        -1.44624
C         30.47834        40.39454        -1.25402
C         29.32389        39.64514        -1.89748
C         30.47932        41.82987        -1.35342
C         29.33088        42.49251        -2.01551
C         30.40941        44.76600        -1.35155
C         29.31741        43.98638        -2.04668
C         30.63666        46.07719        -2.11702
C         29.32584        46.86411        -2.14201
C         30.60522        48.94414        -1.75696
C         29.36398        48.24060        -2.04413
C         30.59133        50.36203        -1.56418
C         29.41791        51.06898        -1.35816
C         29.42920        52.45560        -1.06927
C         31.61259        17.00097         1.79791
C         32.67782        19.20414         2.06481
C         31.62479        18.37671         1.60938
C         32.62712        20.60643         1.92071
C         31.46843        21.24886         1.29631
C         32.44058        23.46830         1.83667
C         31.35979        22.69773         1.32402
C         32.35335        24.89184         1.90336
C         31.16486        25.55062         1.40390
C         32.11475        27.78273         1.98009
C         31.11328        26.96270         1.27581
C         32.23185        29.21327         1.71224
C         31.07907        29.86708         0.97731
C         32.18729        32.07656         1.40672
C         31.51852        31.20380         0.35741
C         32.33628        33.51146         1.07578
C         31.44519        34.09306         0.03616
C         32.41399        36.33555         0.63970
C         31.46877        35.45969        -0.15653
C         32.69707        37.65604        -0.02333
C         31.73243        38.21994        -1.03931
C         32.92796        40.45964        -0.80098
C         31.61994        39.71364        -0.89891
C         32.73831        41.87147        -0.27113
C         31.60659        42.58446        -0.97393
C         32.88902        44.69481        -0.88515
C         31.67176        43.97895        -1.11710
C         32.89910        46.12225        -1.03874
C         31.81066        46.82849        -1.52424
C         31.78984        48.24197        -1.52978
C         33.70302        21.40143         2.33650
C         34.79952        23.58634         2.54058
C         33.66098        22.81811         2.24995
C         34.74358        25.00163         2.54026
C         33.47874        25.63543         2.31987
C         34.56327        27.89647         2.75671
C         33.36404        27.07702         2.55219
C         34.46418        29.27682         2.76795
C         33.28273        29.92982         2.25114
C         34.26241        32.23613         3.00868
C         33.21305        31.41893         2.30323
C         34.29920        33.76519         2.75850
C         33.68006        34.15024         1.36782
C         34.73840        36.39254         1.54955
C         33.65555        35.64860         1.16180
C         34.86065        37.77533         1.16688
C         33.83072        38.39211         0.37128
C         35.12887        40.49379         0.38502
C         33.98403        39.75940         0.01084
C         35.19334        41.90927         0.10734
C         34.05876        42.61712        -0.26671
C         34.06237        44.00836        -0.50862
C         35.89484        25.78835         2.77686
C         36.98571        27.94767         3.15582
C         35.84617        27.20455         2.89037
C         36.83054        29.33997         3.70560
C         35.70740        30.13157         2.98084
C         36.78574        32.33299         3.84856
C         35.44510        31.48362         3.69551
C         36.82210        33.67369         3.11537
C         35.69266        34.36746         2.78816
C         37.11243        36.44749         2.34581
C         35.73984        35.86645         2.56591
C         37.21847        37.75165         1.92352
C         36.07892        38.47460         1.41137
C         36.19688        39.82194         1.02777
C         38.08887        30.15765         3.63189
C         39.30601        32.24738         3.55313
C         38.05828        31.51265         3.61869
C         39.33264        33.58497         3.32846
C         38.12837        34.33844         3.06562
C         38.24942        35.65997         2.68525
O         23.96115        26.91246        -3.48253
O         19.00375        38.94926        -2.51233
O         33.02490        31.87456         3.69259
O         18.94759        43.92886         1.72185
O         29.73336        43.24704        -3.24204
O         24.02318        20.46636        -3.06346
O         28.21837        29.09552        -2.90852
O         15.77436        42.38470         3.35150
O         15.25308        32.71316        -2.38778
O         26.18147        19.27319        -2.55097
O         23.97682        53.38895         1.74079
O         17.51025        31.45421        -3.10733
O         16.40653        45.94123         0.25357
O         14.67903        29.23668        -2.38574
O         25.66757        14.64843         1.81623
O         23.91957        57.55874        -0.30788
O         27.98833        31.53490        -3.04260
O         36.86941        32.76743         5.18870
O         18.86023        11.70121        -2.20279
O         20.01539        51.17256        -1.05153
O         20.70784        19.64492        -0.25560
O         15.16263        19.41736        -2.60378
O         20.66821        42.20333        -2.89325
O         10.88926        32.98955         4.17082
O         21.46343        15.98299        -2.68899
O         12.22438        24.77646        -1.54172
O         13.64460        21.88846        -1.74678
O         19.33264        21.39798        -3.32777
O         26.73320        47.75043        -3.70433
O         29.41264        20.78204        -1.55478
O         24.99121         7.83146         2.33119
O         19.29422        46.35916        -2.02908
O         31.43364        33.06563         2.16813
O         32.22801        27.43771         3.39722
O         23.63992        39.81322        -3.79785
O         17.63617        26.81162        -3.06129
O         30.59357        18.25268        -0.54909
O         24.86039        44.43482        -3.86835
O         15.67411        22.76464         0.92152
O         28.04763        17.89289        -1.60969
O         23.30369        36.66225        -3.70975
O         21.98354        49.26974        -2.63980
O         22.57827         5.52411        -0.26269
O         29.31677        16.91557         2.45977
O         28.08935        49.65021         0.05526
H         28.19965        50.36282         0.72093
O         34.59746        33.59093         0.38761
H         34.21735        33.70547        -0.50863
O         29.87939        45.10567        -0.03637
H         30.53816        45.67926         0.41009
O         25.59060        48.64507        -0.37570
H         26.45352        48.94726         0.01402
O         16.77525        21.45587        -3.17014
H         16.28139        20.77708        -3.68021
O         33.41874        40.54703        -2.16800
H         33.38993        39.62994        -2.53485
O         19.91090        33.89774         0.15787
H         20.10081        32.99299         0.48540
O         13.32086        38.63579         3.56099
H         13.50989        39.43499         4.09746
O         32.32365        41.73473         1.11869
H         32.22904        42.63348         1.49697
O         24.00454        38.39370        -0.52875
H         24.77268        38.88854        -0.13444
O         28.37679        49.76519        -3.58521
H         28.08194        49.12267        -4.27073
O         13.02374        37.59385        -0.89199
H         12.07252        37.30956        -0.88078
O         27.03812        24.66595         1.23728
H         27.65353        24.34786         1.93228
O         29.04241        26.78581        -2.37597
H         28.74924        27.28951        -3.17229
O         32.57846        30.99968        -0.60780
H         32.31204        30.25010        -1.19629
O         25.03313        13.25215        -1.46552
H         24.31358        13.02443        -2.09114
O         31.00450        45.79055        -3.48328
H         30.48109        45.02360        -3.80634
O         13.81802        26.53231        -2.79361
H         13.78616        27.45538        -3.13000
O         28.52627        10.16689        -0.46538
H         27.90208        10.60106        -1.08320
O         25.85951        28.74545        -4.02689
H         26.80560        28.72220        -4.29175
O         29.70573        39.54563        -3.31696
H         29.70988        40.45435        -3.69112
O         16.92336        17.63373        -3.16235
H         16.26252        18.24031        -3.57372
O         17.53392        50.48184        -0.63362
H         18.16504        50.60330        -1.38168
O         31.40223        28.71343        -1.16256
H         30.95059        28.15025        -1.83228
O         21.40643        46.92585        -3.47886
H         21.83587        47.74022        -3.83501
O         26.41723        39.81392        -0.15019
H         27.18015        39.42949         0.33485
O         17.91224        21.75583         0.23681
H         17.35688        22.01706         1.01068
O         30.02983        30.13768         1.93426
H         30.40491        30.68279         2.65946
O         21.34923        37.52017        -0.18202
H         22.32798        37.65974        -0.20835
O         36.49248        29.08181         5.09359
H         35.83859        29.77938         5.37545
O         26.75268        53.15551        -2.75214
H         27.54823        52.89714        -3.26703
O         19.50434        29.47743         0.19412
H         20.42203        29.64193         0.49978
O         18.94631        35.12823        -3.15498
H         18.99781        36.01738        -3.56707
O         17.56187        34.89157         1.00400
H         18.51548        34.61677         1.02199
O         18.43520        16.08475         0.69457
H         17.70476        15.58817         1.12374
O         20.99130        23.18543        -3.87969
H         20.58967        22.37910        -4.28153
O         24.06400        57.67897         3.30823
H         24.19228        58.33858         4.02221
O         22.55457        50.04098         1.33451
H         23.40656        50.39292         1.67090
O         35.28029        36.46195         3.82391
H         34.53477        35.90168         4.14991
O         31.64897        36.65827         1.87358
H         31.78815        35.91963         2.50811
O         32.30865        37.98550        -2.38912
H         31.60976        38.25086        -3.03243
O         26.29008        17.50745         1.57012
H         26.06672        16.76674         2.18080
O         10.52746        37.24318         0.11372
H         10.12108        38.12939         0.00403
O         36.18329        30.48583         1.65827
H         36.38574        29.66093         1.16944
O         25.70941        41.72149        -4.30192
H         24.93873        41.19398        -4.61820
O         21.17650        38.04232        -3.80228
H         21.80826        38.44014        -4.43946
O         25.38586        50.87664        -3.28711
H         25.57658        51.84254        -3.37866
O         11.51798        35.46774         4.16084
H         11.38808        34.71315         4.78285
O         23.69269        12.97253         1.98097
H         24.36838        13.57528         2.37947
O         24.15533        48.60222        -3.74697
H         24.98629        48.29152        -4.17868
O         21.48432        56.85593        -0.17793
H         22.18886        57.10511        -0.82382
O         33.47596        34.39774         3.76163
H         32.87221        33.69020         4.10301
O         34.99808        31.21187         5.02875
H         35.51795        31.86536         5.59345
O         20.13409         6.11166         2.43081
H         20.70663         6.76073         2.88898
H          6.48777        30.72523         4.42622
H          6.47280        33.18425         4.65635
H          8.54508        26.58684         2.73139
H          7.51561        28.66123         3.57492
H          7.40973        35.34028         3.92133
H          8.25906        37.48059         3.29795
H         10.53472        22.47871         1.38515
H          9.56787        24.53399         2.01808
H          9.55999        39.66817         3.33887
H         10.79054        41.82712         3.08808
H         12.71487        18.20663         0.41438
H         11.59461        20.32171         0.96929
H         12.08875        43.87085         3.23869
H         13.37645        46.07415         3.17205
H         14.89198        13.94378        -0.35023
H         13.74365        16.11250        -0.09300
H         14.61524        48.17730         3.03571
H         15.74314        50.27954         2.91774
H         17.29406         9.56761        -0.25683
H         16.06797        11.81497        -0.33186
H         16.94170        52.39245         2.91124
H         18.08812        54.55950         2.90691
H         19.77313         5.41790         0.52685
H         18.49587         7.53574         0.17976
H         19.34754        56.65968         3.15602
H         20.41327        58.92386         3.00367
H         23.22449         2.22913         1.92939
H         21.03799         3.39027         1.80429
H         23.81098        62.31530         2.80222
H         21.66201        61.10429         3.00906
H         25.34515         3.40721         1.47635
H         26.55600         5.44019         0.55647
H         27.03914        59.16698         1.19392
H         25.85164        61.20698         1.94774
H         27.95639         7.90896         0.79439
H         28.85871         9.99522         1.55735
H         29.27250        55.01486        -0.29763
H         28.18653        57.04027         0.45040
H         30.09194        12.07896         1.44002
H         31.28438        14.21626         1.78383
H         31.55522        50.89103        -1.50949
H         30.40195        52.95128        -0.92049
H         32.46554        16.51573         2.29651
H         33.53256        18.75142         2.58858
H         33.79947        46.67313        -0.72570
H         32.69026        48.79225        -1.21612
H         34.61002        20.91790         2.72769
H         35.74627        23.08284         2.78339
H         36.15095        42.43524         0.24273
H         35.00483        44.56964        -0.41767
H         36.86042        25.28291         2.92574
H         37.95685        27.43676         3.25402
H         38.20433        38.23906         1.88133
H         37.12502        40.36914         1.25117
H         39.05804        29.63461         3.57672
H         40.24499        31.68485         3.67266
H         40.29227        34.12150         3.28299
H         39.24985        36.11312         2.60679
