         667
 CSIRO Nanostructure Databank - Neutral Graphene Oxide Data Set
C          5.86494        31.76294        -0.71157
C          5.86667        33.11276        -0.63055
C          8.31989        27.38251         0.04638
C          8.29196        28.89096         0.18181
C          7.06040        29.54085        -0.36929
C          8.36585        31.67800        -0.43658
C          7.12394        30.94794        -0.90441
C          8.31196        33.12371        -0.19409
C          7.09383        33.88879        -0.53599
C          8.38637        36.01418        -0.63903
C          7.14854        35.25572        -0.64927
C          8.37178        37.40081        -0.76953
C         10.77943        23.09966         0.30826
C         10.75559        24.52098         0.27155
C          9.55874        25.24462         0.13063
C         10.75639        27.43840         0.52269
C          9.49630        26.67868         0.16161
C         10.81187        28.83710        -0.04747
C          9.54870        29.49608        -0.50324
C         10.82043        31.70832        -0.23989
C          9.55559        31.00198        -0.34060
C         10.86043        33.10367        -0.31965
C          9.64744        33.88795        -0.15933
C         10.86271        35.97473        -0.73390
C          9.65636        35.31897        -0.52934
C         10.84787        37.42104        -1.01382
C          9.57712        38.16476        -0.86476
C         10.83157        40.30056        -0.84654
C          9.60603        39.54855        -0.93885
C         10.81778        41.70403        -0.78989
C         13.25135        18.79506         0.56024
C         13.20946        20.19310         0.52590
C         12.00468        20.94364         0.43386
C         13.24554        23.08683         0.36283
C         11.98042        22.35960         0.39069
C         13.25008        24.54073         0.34803
C         12.02355        25.24557         0.35025
C         13.25394        27.35404         0.36211
C         12.03488        26.65648         0.32333
C         13.29478        28.74231        -0.22088
C         12.01073        29.53588        -0.07716
C         13.28099        31.68029         0.08329
C         12.04121        30.94814        -0.23048
C         13.31411        33.17527         0.02136
C         12.14311        33.80134        -0.68875
C         13.34614        35.96774        -0.45501
C         12.13887        35.30433        -0.57770
C         13.48763        37.43651        -0.82108
C         12.15834        38.17947        -0.95304
C         13.19660        40.31133        -0.16844
C         12.07694        39.61565        -0.64148
C         13.18662        41.72518        -0.14117
C         11.99891        42.43702        -0.51792
C         13.20120        44.58278        -0.30557
C         12.02379        43.85640        -0.56194
C         13.24071        46.00032        -0.43175
C         15.80056        14.48068         0.76297
C         15.73254        15.90385         0.70259
C         14.51165        16.62909         0.62742
C         15.72380        18.72950         0.39065
C         14.48203        18.04428         0.55457
C         15.79239        20.20768         0.46025
C         14.48103        20.95245         0.60189
C         15.70303        23.13490         0.16200
C         14.43777        22.40417         0.36674
C         15.75299        24.57291         0.53603
C         14.47388        25.25531         0.48300
C         15.69711        27.38730         0.93456
C         14.46481        26.65841         0.54280
C         15.73871        28.87477         0.74450
C         14.58836        29.51376         0.04636
C         15.80641        31.74664         0.48267
C         14.59776        31.00178         0.07089
C         15.79760        33.15804         0.38282
C         14.60505        33.87551         0.03194
C         15.76726        36.01273         0.20577
C         14.59488        35.27358        -0.13332
C         15.64856        37.44268         0.39141
C         14.51467        38.13334         0.03102
C         15.62676        40.32119         0.54498
C         14.32307        39.55443         0.49653
C         15.58110        41.75930         0.48801
C         14.38517        42.46111         0.17715
C         15.61235        44.61247         0.29924
C         14.40202        43.87943         0.06941
C         15.66457        46.04019         0.07083
C         14.43041        46.73295        -0.28917
C         15.64417        48.89155        -0.36873
C         14.43963        48.14228        -0.40183
C         15.63847        50.27647        -0.36814
C         18.32794        10.28622         0.32120
C         18.31627        11.66057         0.58799
C         17.09025        12.37665         0.57633
C         18.28764        14.48339         0.84748
C         17.04522        13.77918         0.73761
C         18.22809        15.95078         1.14731
C         16.96673        16.62619         0.64417
C         18.18074        18.70906         0.08055
C         16.92677        17.99781         0.37434
C         18.16354        20.16691        -0.16637
C         17.02478        20.91487        -0.00504
C         18.20703        23.20059         0.17182
C         16.97082        22.41497        -0.13005
C         18.18759        24.42539         1.07559
C         16.93755        25.23177         0.79559
C         18.17223        27.38496         1.05571
C         16.99679        26.67484         0.97331
C         18.18780        28.87143         1.39642
C         17.01079        29.61031         0.79965
C         18.25735        31.74900         0.85021
C         17.01777        31.01789         0.71353
C         18.22895        33.15055         0.75515
C         17.02324        33.87242         0.54625
C         18.14247        36.03659         0.91682
C         16.99514        35.32679         0.54436
C         18.08039        37.46282         1.24422
C         16.77182        38.18529         1.01631
C         18.02831        40.37234         1.31785
C         16.78784        39.64866         0.84705
C         18.01312        41.81040         0.86387
C         16.79278        42.48985         0.67444
C         18.02467        44.61885         0.96099
C         16.79509        43.91226         0.59110
C         18.06860        46.17890         0.73881
C         16.86857        46.73721         0.11718
C         18.24265        48.79476        -0.60614
C         16.92301        48.11279        -0.42660
C         18.17233        50.29800        -0.53680
C         16.88380        51.05441        -0.30752
C         18.23693        53.21442        -0.68344
C         16.86582        52.54644        -0.64605
C         18.30542        54.57775        -0.86292
C         20.82004         6.17324        -0.77088
C         20.81556         7.47597        -0.20459
C         19.59407         8.10537         0.09585
C         20.83175        10.23461         0.85925
C         19.51710         9.48677         0.56134
C         20.81287        11.70940         0.74109
C         19.57064        12.37937         0.75057
C         20.77375        14.53982         0.87257
C         19.53308        13.81144         0.82989
C         20.72765        15.98455         0.85542
C         19.52593        16.65082         0.85165
C         20.72379        18.90558         0.63598
C         19.48217        18.06349         0.41010
C         20.66450        20.21624        -0.09422
C         19.46861        20.67809        -0.56792
C         20.63602        23.06545         0.54761
C         19.40472        22.79142        -0.27773
C         20.66648        24.55818         0.72802
C         19.48092        25.22019         0.88885
C         20.67549        27.37084         1.50558
C         19.49468        26.72805         0.74544
C         20.72414        28.87946         1.21362
C         19.50674        29.58176         1.13351
C         20.74165        31.69643         1.05589
C         19.50964        31.00090         1.00242
C         20.71136        33.17567         1.19105
C         19.51051        33.94480         0.68955
C         20.67119        36.13653         1.19688
C         19.38845        35.31995         1.39131
C         20.62228        37.52148         1.17988
C         19.35574        38.22598         1.22323
C         20.55975        40.32309         0.81586
C         19.32783        39.60089         1.10770
C         20.20923        41.55938         0.07305
C         19.23985        42.51718         0.69773
C         20.51424        44.69057         1.31101
C         19.29516        43.89094         0.88262
C         20.61727        45.98293         0.47121
C         19.42001        46.93862         0.75661
C         20.79754        48.66619        -0.32702
C         19.52180        48.12416        -0.18781
C         21.04352        49.92591        -0.99623
C         19.24161        51.06672        -1.15944
C         20.74647        53.03598        -1.13852
C         19.41901        52.41197        -0.94443
C         20.80284        54.48159        -0.67128
C         19.56056        55.25535        -1.06555
C         20.85705        57.27384        -1.64069
C         19.61866        56.55398        -1.51290
C         20.92704        58.55632        -2.12083
C         23.24218         3.65310        -2.12901
C         22.03854         4.23402        -1.73030
C         23.25064         6.24679        -1.00720
C         22.01870         5.54026        -1.15824
C         23.24045         7.57133        -0.49046
C         22.07051         8.17632        -0.04982
C         23.33278        10.33144         0.38502
C         22.15530         9.46303         0.76338
C         23.30474        11.74747         0.55690
C         22.03833        12.43914         0.68302
C         23.26285        14.60039         0.58178
C         22.01865        13.86418         0.73807
C         23.26324        16.00586         0.50800
C         22.02749        16.76836         0.90329
C         23.20099        18.88635         0.10923
C         21.92065        18.08595         0.12103
C         23.15131        20.29210        -0.08678
C         21.90013        20.99811        -0.11199
C         23.08273        23.15543        -0.07218
C         21.88852        22.39973         0.04194
C         23.05817        24.59845         0.16169
C         21.92424        25.25129         0.60570
C         23.27433        27.37487         1.07464
C         21.98298        26.63092         1.16313
C         23.24293        28.85945         1.28493
C         21.95250        29.58489         1.16921
C         23.24755        31.74190         1.09691
C         21.97661        31.00772         1.14426
C         23.31095        33.26157         1.34324
C         21.96882        33.96729         1.31194
C         23.11135        36.14640         0.78563
C         21.93891        35.44316         1.08261
C         23.12388        37.60655         0.83922
C         21.90503        38.32636         1.37154
C         23.07872        40.52219         0.75576
C         21.81521        39.75967         0.84848
C         23.19478        41.94665         0.83771
C         22.19204        42.96313         0.44057
C         22.94807        44.67795         2.05877
C         21.82607        43.94562         1.34813
C         23.02247        46.07040         1.33420
C         21.95035        46.67728         0.72381
C         23.17575        48.80400         0.32298
C         21.99933        48.06268         0.25536
C         23.23746        50.20101        -0.03312
C         22.08647        50.78307        -0.68496
C         23.29353        52.99663        -0.70285
C         22.06392        52.23296        -1.02280
C         23.29475        54.43645        -0.88745
C         22.10027        55.14811        -1.00865
C         23.36527        57.15038        -1.68783
C         22.08652        56.65737        -1.00428
C         23.39471        58.63171        -1.93510
C         22.17831        59.29579        -2.19305
C         23.44455        61.31789        -2.68643
C         22.21806        60.65925        -2.55704
C         24.45816         4.31160        -1.94935
C         25.72030         6.19800        -0.99243
C         24.50596         5.60658        -1.34957
C         25.73573         7.48170        -0.20973
C         24.53358         8.33034        -0.62363
C         25.76843        10.35667         0.06980
C         24.54457         9.69819         0.00922
C         25.82307        11.73393         0.67063
C         24.51865        12.47780         0.50941
C         25.72821        14.63638         0.34340
C         24.51310        13.89994         0.47157
C         25.70567        16.05912         0.24352
C         24.44854        16.74697         0.28638
C         25.64217        18.92002        -0.03688
C         24.42262        18.19036         0.13419
C         25.61722        20.33550        -0.21978
C         24.35801        21.04121        -0.23276
C         25.49659        23.19183        -0.75518
C         24.29008        22.45757        -0.33737
C         25.48443        24.69317        -0.71008
C         24.25401        25.40618        -0.19263
C         25.59633        27.46083         0.13298
C         24.41697        26.78080         0.32584
C         25.82339        28.84151         0.76715
C         24.52934        29.61033         1.09065
C         25.70767        31.80897         0.65472
C         24.43451        31.07616         0.89304
C         25.63907        33.28537         0.45387
C         24.27560        33.93707         0.36063
C         25.52079        36.14602         0.24081
C         24.35025        35.45138         0.49934
C         25.50360        37.65291         0.05642
C         24.26436        38.32182         0.59868
C         25.53200        40.43522         0.99714
C         24.29702        39.77808         0.79862
C         25.55027        41.77745         1.43883
C         24.35114        42.51116         1.43367
C         25.57957        44.66441         2.04543
C         24.28668        43.90718         1.97593
C         25.56984        46.16292         1.91771
C         24.27695        46.85642         1.51292
C         25.62900        48.95798         0.96688
C         24.46323        48.06824         0.60173
C         25.65258        50.29075         0.56504
C         24.44045        50.93077         0.06902
C         25.72234        53.03694        -0.32026
C         24.46093        52.33067        -0.30400
C         25.75024        54.42868        -0.69923
C         24.56614        55.12281        -0.89193
C         25.88412        57.20150        -1.54382
C         24.60800        56.63156        -0.96373
C         25.86663        58.51803        -1.99833
C         24.64292        59.27247        -2.12537
C         24.64747        60.64049        -2.49155
C         26.99840         8.26522        -0.41464
C         28.21375        10.39064        -0.29816
C         27.00459         9.65368        -0.25074
C         28.24278        11.80392        -0.08835
C         27.02332        12.51094         0.20883
C         28.20307        14.65064         0.13847
C         27.00227        13.93350         0.21511
C         28.22956        16.13108         0.38123
C         26.91162        16.80763         0.13057
C         28.11671        18.94991        -0.14349
C         26.89031        18.21446        -0.02096
C         28.07584        20.35714        -0.23514
C         26.84709        21.04573        -0.31038
C         28.04898        23.27068        -0.67850
C         26.83286        22.47717        -0.66397
C         27.99287        24.68432        -1.21289
C         26.76202        25.42048        -0.68417
C         28.02257        27.51815        -0.64104
C         26.76419        26.76142        -0.39192
C         28.03725        28.99335        -0.48415
C         26.83800        29.68566         0.01866
C         28.05905        31.79115        -0.24442
C         26.86990        31.06066         0.10691
C         28.03452        33.25264        -0.42837
C         26.76007        34.01343        -0.20697
C         28.01416        36.13267        -0.00706
C         26.79602        35.47769         0.01803
C         28.04814        37.64627         0.00601
C         26.78572        38.27764         0.53109
C         28.01839        40.22798         1.49558
C         26.83986        39.77645         0.61362
C         28.10603        41.73956         1.52343
C         26.82166        42.44577         1.94369
C         28.11261        44.64196         1.97620
C         26.82480        43.94147         1.54008
C         28.15385        46.18259         2.02783
C         26.83796        46.84470         1.67757
C         28.17691        49.07033         1.40866
C         26.82600        48.30759         1.52286
C         28.13515        50.37245         0.73005
C         26.91502        51.01586         0.47971
C         28.18149        53.04755        -0.23377
C         26.92051        52.36743        -0.02493
C         28.20651        54.39419        -0.67374
C         27.02584        55.11329        -0.89085
C         27.06067        56.44168        -1.38419
C         29.44879        12.50091        -0.14513
C         30.51329        14.65099        -0.86227
C         29.53833        13.96390         0.14229
C         30.57253        16.14458        -0.65207
C         29.40393        16.84510        -0.24803
C         30.57947        18.97505        -0.58965
C         29.37568        18.25009        -0.30057
C         30.60078        20.39420        -0.57019
C         29.35355        21.10118        -0.22869
C         30.56513        23.27418        -0.90657
C         29.32838        22.62681        -0.45847
C         30.49834        24.68748        -1.03742
C         29.29802        25.37354        -0.90582
C         30.55916        27.57119        -0.78052
C         29.32383        26.78350        -0.39261
C         30.52090        28.99179        -0.68139
C         29.33963        29.68632        -0.43104
C         30.51365        31.86071        -0.37629
C         29.30272        31.12779        -0.35979
C         30.51921        33.28093        -0.31803
C         29.29213        34.00527        -0.34242
C         30.51421        36.07000         0.07405
C         29.27021        35.40423        -0.14051
C         30.49489        37.42081         0.66674
C         29.27981        38.23762         0.65666
C         30.58125        40.20550         1.35940
C         29.31444        39.53239         1.12405
C         30.61265        41.67300         1.73407
C         29.29416        42.38819         1.53127
C         30.61695        44.57682         1.39065
C         29.37030        43.86287         1.77056
C         30.52853        45.98897         0.95783
C         29.23697        46.80392         1.10168
C         30.64722        48.89850         0.70734
C         29.50564        48.29506         1.51209
C         30.58782        50.27080         0.35457
C         29.38528        50.99501         0.34969
C         29.38090        52.34187        -0.07683
C         31.74701        16.83789        -0.91400
C         33.01002        18.98114        -0.93913
C         31.80319        18.26196        -0.81711
C         33.04069        20.39677        -0.89494
C         31.79684        21.11377        -0.76567
C         33.02591        23.23571        -1.06813
C         31.79907        22.55544        -0.90156
C         33.05072        24.68219        -1.34002
C         31.73716        25.45124        -1.30618
C         33.02207        27.58987        -1.11016
C         31.75852        26.90380        -1.06210
C         33.05233        28.99818        -0.94702
C         31.75864        29.78711        -1.04329
C         33.02154        31.88893        -0.49826
C         31.79214        31.07589        -0.21981
C         33.00097        33.25518        -0.39678
C         31.75855        33.98898        -0.25610
C         33.02371        36.10167         0.11117
C         31.75194        35.38974        -0.03924
C         33.06028        37.46174         0.49256
C         31.81526        38.12097         0.93642
C         33.10875        40.24203         1.41572
C         31.77958        39.56987         1.15449
C         33.07586        41.73048         1.21075
C         31.75423        42.38866         0.97597
C         33.05721        44.58945         1.00151
C         31.78507        43.88926         1.16779
C         33.07203        45.98323         0.92593
C         31.83737        46.71244         0.67657
C         31.80486        48.17675         0.52430
C         34.25827        21.12084        -0.95067
C         35.48943        23.27827        -1.00493
C         34.27841        22.53895        -0.99005
C         35.53490        24.70707        -1.08325
C         34.29255        25.44209        -1.18349
C         35.49743        27.59331        -1.17603
C         34.26493        26.85831        -1.16695
C         35.50693        28.97957        -1.04101
C         34.27405        29.67700        -0.85962
C         35.58067        31.87174        -0.65683
C         34.29174        31.12573        -0.54332
C         35.53944        33.35243        -0.85628
C         34.24358        34.04300        -0.60089
C         35.47955        36.09015         0.12096
C         34.25389        35.44885        -0.13773
C         35.49972        37.47165         0.41011
C         34.27705        38.16300         0.52893
C         35.55958        40.32230         0.92807
C         34.24190        39.66850         0.55920
C         35.53557        41.68271         1.17530
C         34.28479        42.43059         1.14916
C         34.27169        43.84595         1.03873
C         36.74249        25.40565        -1.11515
C         37.99020        27.58402        -0.89557
C         36.79309        26.86350        -1.46420
C         38.02250        28.94488        -0.83537
C         36.81345        29.71498        -1.33611
C         38.02782        31.83488        -0.64750
C         36.84121        31.16484        -0.92981
C         38.04292        33.24819        -0.40377
C         36.85641        34.12670        -0.75462
C         38.01947        36.05116         0.33687
C         36.73255        35.25407         0.28641
C         37.98228        37.43583         0.56136
C         36.76848        38.17495         0.62130
C         36.75769        39.55204         0.88557
C         39.20655        29.67821        -0.45527
C         40.44528        31.78176        -0.06464
C         39.24992        31.05964        -0.43303
C         40.43012        33.12942         0.14647
C         39.21573        33.90417         0.00943
C         39.21107        35.31222         0.25937
O         20.03244         9.73528         1.95769
O         28.82319        44.11551         3.13581
O         32.32832        25.06319        -2.58641
O         21.49060        52.66625        -2.31746
O         34.75259        33.81524        -1.99713
O         26.05436        32.75254         1.74054
O         24.71629        46.92038         2.89201
O         25.02378        44.08645         3.24269
O         26.07107        22.67266        -1.99221
O         35.09131        31.43964         0.68038
O         15.39356        28.29033         2.07414
O         19.48589        21.85850        -1.32074
O         17.15896        37.77363         2.38396
O         11.54979        37.83288        -2.25096
O         17.56908        48.21131        -1.77144
O         14.94625        30.25068        -1.16891
O         21.19346        33.58871         2.52354
O         20.11523        50.33979        -1.97218
O         18.99560        18.06027        -0.99692
O         31.02392        46.07928        -0.42893
O         16.18250        22.92541        -1.25875
O         27.10667        33.62746        -1.56768
O         13.06313        32.51166         1.29409
O         22.92468        26.64393         2.30480
O          8.90303        33.56864         1.06585
O         31.13241        37.37927         2.00516
O         17.80472        45.58499         2.03360
O         27.91478        28.32546        -1.84210
O         24.51798        25.28479        -1.64362
O         20.28423        41.51740        -1.15839
O         27.44025        49.05204         2.65921
O         17.79260        50.76806         0.80504
O         15.31934        20.66135         1.78992
O         24.04403        29.26413         2.44592
O         29.48599        22.00933         0.88949
O         23.34621        56.52259        -2.99997
H         24.08811        56.89122        -3.52401
O         22.24707        17.08020         2.32429
H         22.21623        16.23558         2.82222
O          9.40411        29.15987        -1.92878
H         10.28107        29.26881        -2.35596
O          8.41778        29.25878         1.58864
H          7.66498        28.86523         2.07594
O         24.70873         8.56015        -2.05649
H         23.94845         9.08916        -2.37599
O         19.56127        47.51229         2.06675
H         19.47618        46.76322         2.70972
O         22.68218        44.93143         3.44211
H         23.55738        45.05272         3.88776
O         16.22184        52.73215        -1.91889
H         16.83973        52.45861        -2.62793
O         36.58577        34.58724         1.57268
H         36.54317        35.27419         2.27041
O         28.62260        46.84969        -0.20368
H         29.35078        46.74043        -0.86377
O         17.87665        40.43491         2.78415
H         17.65515        39.51393         3.07365
O         22.09211        38.42136         2.82217
H         21.27132        38.79631         3.20637
O         13.88322        39.45039         1.90064
H         14.62020        39.05698         2.41681
O         26.76422        44.02129         0.09993
H         27.49601        43.49103        -0.28173
O         24.83502        47.44289        -0.68254
H         24.91270        48.15446        -1.35323
O         12.38898        33.51817        -2.11335
H         11.77655        34.07226        -2.64231
O         19.77767        34.20150        -0.71789
H         18.96074        34.55942        -1.12546
O         36.97016        26.93067        -2.94856
H         36.22884        26.42538        -3.34828
O         18.09105        16.04532         2.63118
H         17.28966        15.53358         2.87655
O         31.61960        30.18603        -2.43283
H         31.44509        29.38458        -2.96958
O         20.36963        22.48562         1.87351
H         20.55358        21.51695         1.85139
O         28.19600        37.99230        -1.43774
H         28.16689        38.98294        -1.47406
O         22.47235         9.02451         2.12151
H         21.60806         8.87807         2.57532
O         10.69840        27.63119         1.98036
H         10.62691        26.74413         2.39192
O         20.51897        45.63923        -0.92130
H         21.13598        44.89512        -1.11402
O         33.93657        40.07354        -0.81199
H         34.64714        39.72725        -1.39197
O         23.75330        33.66449        -0.96408
H         24.34837        34.07606        -1.62671
O         27.11212        40.31956        -0.74002
H         26.35924        40.02232        -1.30203
O         23.82858        33.46137         2.66872
H         23.10927        33.23583         3.29854
O         24.60369        57.11575         0.42352
H         25.41534        56.77377         0.85541
O         21.69686        17.73511        -1.26457
H         20.76604        17.92832        -1.52145
O         14.08031        37.40950        -2.16087
H         13.32540        37.33098        -2.79110
O         19.76792        27.01451        -0.66330
H         19.06548        26.60021        -1.20786
O         25.45493        37.88707        -1.41177
H         26.35354        37.64649        -1.75749
O         20.18168        45.04201         2.67881
H         20.97950        44.94622         3.25385
O         31.87816        30.64986         1.17482
H         32.07623        31.43473         1.72763
O         30.90257        41.74577         3.16000
H         30.43331        42.52282         3.53691
O         20.82615        19.25240         2.03296
H         21.24215        18.49288         2.51566
O         29.37140        26.66073         1.07328
H         30.20560        26.20942         1.32162
O         30.07531        14.41620        -2.20160
H         30.00318        13.44837        -2.33590
O         19.16625        35.16678         2.80927
H         19.93834        34.67132         3.17814
O         21.98620        57.04356         0.39871
H         22.90282        57.08005         0.77193
O         31.43806        42.18842        -0.44218
H         32.23206        42.42877        -0.96576
O         20.42538        27.19648         2.90372
H         21.29001        27.25534         3.36894
O         26.48212        28.55615         2.03117
H         25.78142        28.57148         2.72715
O         30.14812        14.13583         1.46288
H         29.74786        14.94856         1.86768
O         33.42889        39.99419         2.81043
H         32.71031        40.39911         3.34679
O         18.11003        24.02041         2.46239
H         18.91789        23.48289         2.65002
O         17.98931        28.95968         2.84700
H         17.07821        28.62269         3.02896
O         20.79692        54.42469         0.79528
H         20.95939        55.34901         1.10200
O         26.00949        11.54782         2.13824
H         25.36015        10.87007         2.42719
O         25.59598         7.16484         1.21223
H         26.38903         6.66208         1.49118
O         27.86344        24.65972        -2.66893
H         27.08726        24.08506        -2.87724
O         28.47932        16.26533         1.86653
H         27.66583        15.95486         2.32152
O         28.42971        46.53097         3.40211
H         27.90548        45.93645         3.97978
O         27.69946        39.79396         2.85281
H         28.54085        39.71590         3.35146
O         36.91118        29.72891        -2.79807
H         37.01543        28.78443        -3.08717
O         21.90821        43.15539        -0.88012
H         21.97711        42.32838        -1.40839
O         13.29663        28.43736        -1.66096
H         13.81534        29.15468        -2.10030
O         37.14355        34.71600        -2.03742
H         36.31311        34.66602        -2.56922
O         29.99263        48.39751         2.85609
H         29.20721        48.41027         3.45265
O         26.82506        42.34945         3.38161
H         26.90714        41.38934         3.59742
O          7.24514        30.78083        -2.36435
H          8.00433        30.15628        -2.50776
H          4.90628        31.22551        -0.77020
H          4.91190        33.66167        -0.61079
H          7.37428        26.84300        -0.12710
H          6.24013        28.90767        -0.74808
H          6.21854        35.81570        -0.83337
H          7.40788        37.93123        -0.79336
H          9.82241        22.55659         0.27286
H          8.61818        24.68811        -0.00661
H          8.65802        40.10772        -0.94834
H          9.87488        42.24465        -0.95954
H         12.30339        18.23556         0.56777
H         11.04855        20.39871         0.40201
H         11.10875        44.39816        -0.84414
H         12.31368        46.53382        -0.69013
H         14.86840        13.89763         0.72927
H         13.56168        16.07637         0.68007
H         13.48327        48.67730        -0.50204
H         14.68573        50.81878        -0.45791
H         17.41370         9.78920        -0.03516
H         16.15175        11.81633         0.45220
H         16.22351        53.06678         0.11003
H         17.37547        55.16398        -0.91226
H         19.86261         5.64802        -0.90224
H         18.65607         7.60569        -0.18778
H         18.68312        57.07225        -1.77867
H         20.01336        59.05366        -2.48223
H         23.23418         2.64998        -2.57890
H         21.09191         3.69166        -1.86569
H         23.46101        62.38023        -2.96832
H         21.27992        61.20045        -2.74561
H         25.39872         3.81916        -2.23516
H         26.66469         5.66620        -1.19055
H         26.81408        59.00633        -2.27426
H         25.60527        61.16271        -2.62769
H         27.94976         7.73432        -0.57635
H         29.15725         9.86579        -0.50666
H         29.17821        54.87872        -0.85007
H         28.03175        56.88034        -1.65964
H         30.38693        11.94312        -0.29151
H         31.53659        14.20068        -0.71576
H         31.49652        50.75488        -0.03428
H         30.33671        52.83669        -0.30275
H         32.65776        16.28451        -1.18682
H         33.95324        18.42939        -1.06871
H         34.02210        46.53292         0.98819
H         32.68675        48.66708         0.08315
H         35.20986        20.56973        -0.97571
H         36.44181        22.72933        -0.96302
H         36.47507        42.23241         1.33909
H         35.22506        44.38886         0.96613
H         37.69016        24.84765        -1.08284
H         38.88228        26.99336        -0.63504
H         38.93222        37.98207         0.67276
H         37.71430        40.06031         1.08412
H         40.10408        29.10397        -0.17750
H         41.37929        31.21391         0.05940
H         41.35356        33.65221         0.43643
H         40.17316        35.82205         0.42446
