         349
 CSIRO Nanostructure Databank - Neutral Graphene Oxide Data Set
C          1.29797         3.46963         0.80655
C          0.09907         4.03288         0.51794
C          1.11142         6.21340         0.03967
C         -0.01598         5.44985         0.26769
C          1.10624         7.64924         0.05697
C         -0.05987         8.40432        -0.10832
C          1.11839        10.54938         0.18959
C         -0.07056         9.79975        -0.02731
C          1.13354        11.99555         0.17312
C         -0.02361        12.75284        -0.14159
C          1.18607        14.86122         0.16016
C          0.01319        14.12896        -0.19126
C          1.25094        16.29988        -0.00114
C          0.17591        16.99255        -0.67449
C          1.58780        19.02020        -1.01403
C          0.30267        18.25651        -1.14050
C          1.40682        20.54048        -0.89467
C          0.24993        21.21166        -1.35703
C          1.35134        23.38778        -1.15847
C          0.22975        22.59083        -1.49872
C          1.41903        24.81064        -1.43122
C          0.41806        25.47407        -2.19915
C          1.67526        27.56103        -2.16239
C          0.54357        26.79818        -2.56284
C          1.84894        28.92623        -2.56963
C          3.81445         3.50860         0.66432
C          2.55286         4.32075         0.85721
C          3.62861         6.32080        -0.32135
C          2.39831         5.44171        -0.23604
C          3.63487         7.66378         0.10105
C          2.35728         8.34371         0.54832
C          3.54282        10.56417         0.49658
C          2.34431         9.84766         0.34100
C          3.53874        11.96306         0.69537
C          2.33060        12.70569         0.51065
C          3.47230        14.86266         1.17586
C          2.31927        14.13445         0.58806
C          3.47490        16.37976         1.18170
C          2.37865        17.05837         0.42094
C          3.53436        19.26488         0.56867
C          2.46699        18.41883         0.07913
C          3.77777        20.55909        -0.19556
C          2.50260        21.31115        -0.49832
C          3.58770        23.53586        -0.12817
C          2.48355        22.73534        -0.58987
C          3.58486        24.91782        -0.24364
C          2.53920        25.56500        -0.98541
C          3.77480        27.72777        -0.89483
C          2.65718        26.94897        -1.34786
C          3.93518        29.09370        -1.30515
C          2.94132        29.65462        -2.17829
C          6.28144         3.38123         0.46346
C          5.05238         3.95579         1.05001
C          6.09704         6.33736        -0.34362
C          4.85131         5.75062        -0.75251
C          6.08966         7.72285        -0.00888
C          4.84380         8.38852         0.11346
C          6.12387        10.56009         0.41801
C          4.82300         9.85479         0.24925
C          6.10266        11.92563         1.02079
C          4.77267        12.62649         1.15751
C          6.08530        14.84295         1.49455
C          4.75608        14.10823         1.42491
C          6.09042        16.34976         1.55084
C          4.77750        17.12019         1.49242
C          6.09305        19.28418         0.96696
C          4.82485        18.59934         1.19595
C          6.10532        20.67257         0.71642
C          4.80584        21.37535         0.56491
C          6.05170        23.57060         0.41018
C          4.76166        22.86852         0.49120
C          6.05755        25.04975         0.09791
C          4.69249        25.70974         0.44863
C          5.63093        28.04798         0.57426
C          4.68422        27.18162         0.04183
C          5.98874        29.31370         0.02486
C          5.06306        29.84643        -0.89968
C          8.44497         3.39719        -0.77440
C          7.27001         4.10732        -0.13558
C          8.54614         6.22599        -0.01586
C          7.29643         5.57357        -0.20863
C          8.57572         7.66461         0.19566
C          7.35142         8.39386         0.21888
C          8.59500        10.48155         0.61011
C          7.38203         9.78540         0.48209
C          8.58914        11.93591         0.94393
C          7.33870        12.68971         0.96063
C          8.59061        14.90138         0.88871
C          7.26567        14.17436         0.76113
C          8.51675        16.36028         0.92318
C          7.34899        17.05865         1.14926
C          8.62176        19.31536         1.10385
C          7.34142        18.55420         1.45210
C          8.58031        20.75819         0.70325
C          7.27761        21.43871         0.57177
C          8.49794        23.59996         0.05448
C          7.23572        22.85626         0.35073
C          8.55069        25.03443         0.39022
C          7.33786        25.68779         0.64965
C          8.57629        27.81067         0.80998
C          7.44441        27.02151         1.07607
C          8.45779        29.25710         0.69247
C          7.26047        29.92324         0.34393
C         10.94282         3.41832        -0.76744
C          9.75805         4.10166        -0.52123
C         11.03979         6.10219         0.19152
C          9.74821         5.46339        -0.09559
C         11.07093         7.61924         0.39301
C          9.80087         8.38266         0.30036
C         11.03072        10.60381        -0.01390
C          9.81699         9.79248         0.42896
C         11.10799        12.03862         0.47746
C          9.87175        12.72325         0.90646
C         11.07866        14.87575         0.69414
C          9.80161        14.21003         0.80809
C         11.06867        16.34426         0.59891
C          9.78087        17.09465         0.66158
C         11.03748        19.22040         0.58902
C          9.86096        18.56388         0.81619
C         11.07902        20.64007         0.17892
C          9.79105        21.37660         0.06414
C         11.03674        23.58878         0.32108
C          9.80536        22.87046        -0.04078
C         11.03297        24.99243         0.38774
C          9.79197        25.72469         0.42895
C         11.02090        27.90351         0.35149
C          9.80746        27.15293         0.52888
C         10.95483        29.34201         0.59948
C          9.69733        29.96211         0.73459
C         13.44357         3.39934        -1.00706
C         12.22876         4.05855        -0.67906
C         13.50099         6.08997        -0.19904
C         12.26622         5.40190        -0.23283
C         13.57371         7.42818         0.29081
C         12.38108         8.32139         0.16785
C         13.58210        10.71706         0.18850
C         12.37656         9.84031         0.05934
C         13.51154        12.08486         0.01387
C         12.26191        12.77112         0.28094
C         13.56673        14.93445         0.41704
C         12.28056        14.21278         0.46645
C         13.59408        16.32575         0.64635
C         12.35124        17.06023         0.84450
C         13.56736        19.24645         0.12666
C         12.34696        18.54997         0.71237
C         13.54729        20.73256         0.43821
C         12.35380        21.38363         0.37781
C         13.58161        23.63624         0.58270
C         12.24200        22.84108         0.63025
C         13.49203        25.04231         0.21031
C         12.26347        25.73171         0.29056
C         13.40603        27.75970        -0.42297
C         12.21715        27.16395         0.08548
C         13.37560        29.90632         0.30636
C         12.12194        30.15443         0.86321
C         15.94172         3.45495        -1.34979
C         14.67470         4.09512        -1.02118
C         15.82669         6.35104        -1.09686
C         14.69326         5.45759        -0.64787
C         16.00335         7.56849        -0.21749
C         14.87842         7.96230         0.46297
C         16.07011        10.69147         0.00419
C         14.88846        10.17602         0.44421
C         16.08378        12.11139        -0.35976
C         14.75477        12.84965        -0.22701
C         16.10416        14.83005         0.62049
C         14.77781        14.26932         0.13337
C         16.15509        16.35507         0.71628
C         14.83678        17.11164         0.76101
C         16.07293        19.25145         0.43725
C         14.85278        18.55574         0.50162
C         16.08371        20.68602         0.36760
C         14.84700        21.44493         0.81223
C         15.95760        23.56723        -0.04802
C         14.81912        22.89353         0.35851
C         15.90170        24.96962        -0.33559
C         14.68824        25.67399        -0.23528
C         15.84952        27.79215        -0.77546
C         14.62285        27.07840        -0.56830
C         15.84889        29.83400         0.19908
C         14.64621        30.32551         0.76714
C         18.41080         3.48454        -1.55254
C         17.13043         4.14675        -1.42764
C         18.45359         6.33971        -1.10855
C         17.14974         5.63008        -1.34055
C         18.49742         7.64936        -0.32108
C         17.19836         8.47963        -0.55080
C         18.58770        10.60202        -0.41562
C         17.33583         9.87474         0.17815
C         18.60612        12.10708        -0.17000
C         17.36973        12.83568        -0.16192
C         18.57160        14.98953        -0.33405
C         17.33662        14.20782         0.00286
C         18.57568        16.43214         0.10593
C         17.37257        17.11009         0.34788
C         18.53888        19.26509         0.16311
C         17.32833        18.53473         0.35735
C         18.50349        20.68185        -0.00619
C         17.27604        21.37448         0.10003
C         18.45135        23.51481        -0.57619
C         17.29514        22.88921         0.17570
C         18.39012        24.98532        -0.93859
C         17.05309        25.71143        -1.00356
C         18.30504        27.89630        -0.36221
C         17.09050        27.17831        -0.62471
C         18.29680        29.22206         0.22463
C         17.14111        29.93422         0.71238
C         19.60682         4.13322        -1.39776
C         20.88980         6.22878        -0.98010
C         19.70651         5.54248        -1.10780
C         20.92833         7.65679        -0.75231
C         19.81504         8.40058        -0.49648
C         21.08305        10.66747        -0.39216
C         19.87676         9.84814         0.01024
C         21.06230        12.01726        -0.33704
C         19.83716        12.79959        -0.16391
C         21.03888        14.99647        -0.01019
C         19.85631        14.22747        -0.09720
C         21.02651        16.38238         0.04726
C         19.81034        17.14405         0.10747
C         20.99724        19.35596         0.35762
C         19.79239        18.56550         0.18971
C         20.99049        20.69723         0.17514
C         19.78838        21.35949        -0.44690
C         20.88685        23.63934        -0.58378
C         19.77145        22.87606        -0.39117
C         20.81971        25.07070        -0.67682
C         19.63629        25.77009        -0.78998
C         20.75389        27.93760        -0.33256
C         19.56576        27.21845        -0.52681
C         20.74225        29.25206         0.15242
C         19.54224        29.84771         0.49746
O          3.82788        19.32435         1.97338
O          5.38430        11.93606         2.31771
O         15.62156        16.79579         1.99466
O         18.33260        23.92739        -1.97135
O         15.75983        29.16284        -1.03601
O          5.51500        10.51055        -0.91790
O         13.34398        29.08482        -0.84899
O         14.93205         9.07411         1.30857
O          6.32720        15.51017         2.74048
O          9.38725        12.20473         2.20711
O         15.36850        12.53213        -1.56170
O         11.12071         6.72575         1.54045
O         12.91718        23.28547         1.85600
O         10.39236        16.74194        -0.65173
O         12.46205        17.94673         2.03629
O         12.45438         8.99212        -1.15790
O          4.41818        22.13176         1.73573
O         17.86021         6.31048        -2.44861
O          3.83286        14.36163         2.50997
O          6.35459        27.63085         1.69935
O          4.37289        20.18294        -1.43197
O         10.36955        20.76681        -1.12387
O          3.79042        16.86423         2.51919
O          8.87996        20.37878         2.10535
O          9.10635        23.32327        -1.25844
O         18.47888         7.22826         1.06971
H         18.72832         8.01896         1.60953
O          7.20444        18.59347         2.89863
H          7.56234        19.46159         3.19926
O         17.60045        23.18482         1.58054
H         16.93493        22.70857         2.12846
O          4.83771         4.69902        -1.59724
H          5.74701         4.36904        -1.75676
O          8.21612         3.34298        -2.20469
H          8.58299         4.15672        -2.60756
O         10.74688        10.80745        -1.43856
H         11.22164        10.09283        -1.92935
O         16.14833        14.32534         2.00437
H         15.77968        15.04482         2.57526
O         19.98780         9.72284         1.45409
H         19.79895        10.59895         1.85196
O          2.20908         4.74392        -1.48403
H          2.12934         5.40688        -2.19962
O         16.66108        25.74296        -2.41603
H         17.00348        24.90997        -2.81923
O         14.92508        21.47669         2.27292
H         14.15694        22.02104         2.57838
O          6.85368        14.35638        -0.65847
H          7.58769        14.05206        -1.23529
O         15.35357         6.80349        -2.41983
H         15.41563         6.03762        -3.02923
O         17.00255         8.80142        -1.93115
H         16.97229         7.96009        -2.45436
O         17.54255         9.69265         1.59031
H         16.69143         9.35597         1.95993
O         18.62701        10.55543        -1.86000
H         17.73738        10.77657        -2.21112
O         18.50870        15.11602        -1.82773
H         18.56382        14.20666        -2.19563
O          2.33331         8.17456         2.01277
H          1.51131         8.59346         2.34552
O         13.40874        19.09718        -1.31892
H         14.12030        19.60185        -1.76552
O         19.88876        21.07357        -1.89220
H         19.91915        20.09815        -1.99499
O          2.29652        18.80968        -2.27383
H          3.16345        19.32745        -2.19544
O          6.17917        25.20014        -1.34254
H          6.95221        24.67960        -1.65179
O          4.52750        25.57948         1.87119
H          3.62999        25.88441         2.11492
O          2.58087         4.99777         2.14389
H          2.33936         4.34822         2.83630
O          5.22435         4.95541         1.94655
H          4.32469         5.28163         2.21636
H          1.36447         2.40396         1.07292
H         -0.82137         3.43106         0.55680
H         -1.00396         5.92100         0.37940
H         -0.99969         7.89147        -0.36138
H         -1.02537        10.31893        -0.18149
H         -0.96329        12.24349        -0.39273
H         -0.90234        14.65991        -0.47950
H         -0.76468        16.45950        -0.86698
H         -0.51167        18.68373        -1.74236
H         -0.64205        20.64288        -1.65434
H         -0.67735        23.06259        -1.90102
H         -0.45994        24.91193        -2.54573
H         -0.23000        27.27372        -3.18312
H          1.08656        29.38147        -3.21866
H          3.77480         2.72911        -0.10936
H          3.05936        30.69654        -2.51020
H          6.34571         2.28136         0.41001
H          5.23400        30.83975        -1.34095
H          8.49268         2.33895        -0.41401
H          7.36441        30.99056         0.08480
H         10.89540         2.36703        -1.08804
H          9.67068        31.06001         0.81438
H         13.41498         2.34184        -1.30783
H         12.00018        31.00058         1.55699
H         15.95322         2.35883        -1.45270
H         14.70252        30.92601         1.68615
H         18.40670         2.39896        -1.73340
H         17.31859        30.65188         1.52900
H         20.54214         3.55798        -1.47497
H         21.84656         5.69109        -1.05762
H         21.92045         8.13266        -0.75784
H         22.04248        10.15640        -0.56304
H         21.99662        12.56744        -0.52290
H         22.01311        14.48712         0.02109
H         21.98845        16.91180         0.08639
H         21.91608        18.85505         0.69615
H         21.90799        21.28080         0.33864
H         21.88489        23.17724        -0.57568
H         21.77452        25.60690        -0.59078
H         21.72609        27.46963        -0.53323
H         21.69060        29.78431         0.30764
H         19.53934        30.85097         0.94729
