         261
 CSIRO Nanostructure Databank - Neutral Graphene Oxide Data Set
C        -11.21588         0.77884        -0.79481
C        -10.19303         1.63731        -0.15017
C         -8.94114         0.92058         0.31996
C         -7.62907         1.67111         0.14407
C         -6.30805         1.03293         0.49268
C         -4.90935         1.73295         0.36480
C         -3.81904         0.83331        -0.20680
C         -2.47023         1.51779        -0.27635
C         -1.20826         0.72646        -0.38197
C         -0.04184         1.43358         0.27928
C          1.17032         0.64961         0.66905
C          2.47754         1.34912         1.01555
C          3.77744         0.59849         0.74233
C          5.03676         1.40407         0.50249
C          6.12753         0.83158        -0.35526
C          7.34552         1.64785        -0.68436
C          8.65464         0.87439        -0.80822
C          9.94154         1.61031        -0.53647
C         11.14785         0.82355        -0.15050
C        -10.14069         3.12245        -0.39032
C         -8.92255         3.75360        -0.61994
C         -7.92767         2.67841        -1.00944
C         -6.16094         3.46727        -1.10570
C         -4.88500         2.95598        -0.55592
C         -3.60440         3.70642        -0.87442
C         -2.34927         2.99260        -0.48901
C         -0.99835         3.64365        -0.64901
C          0.14438         2.89243        -0.04595
C          1.19998         3.62642         0.74370
C          2.45910         2.86184         1.13109
C          3.77847         3.61916         1.17011
C          5.06499         2.89646         0.82457
C          6.33733         3.68139         0.55447
C          7.36736         3.17131        -0.44953
C          8.72173         3.79140        -0.18602
C          9.89207         3.05194        -0.24179
C         -8.68854         5.15163        -0.48561
C         -7.47387         5.91140        -0.61549
C         -6.25023         5.50599        -1.43055
C         -4.89038         5.87291        -0.81141
C         -3.59276         5.17692        -1.18513
C         -2.25744         5.90475        -1.02907
C         -0.98697         5.14809        -0.73780
C          0.21907         5.87669        -0.17514
C          1.16882         5.12971         0.76330
C          2.42320         5.86733         1.19120
C          3.76261         5.13648         1.25087
C          5.06397         5.89790         1.11220
C          6.35143         5.17297         0.76833
C          7.49560         5.94015         0.17836
C          8.70224         5.20730        -0.05045
C         -7.41876         7.20892        -0.12540
C         -6.14530         7.97632         0.18692
C         -4.85502         7.26901        -0.25930
C         -3.64550         8.08552        -0.64425
C         -2.33271         7.41009        -0.89596
C         -1.03576         8.26390        -0.64525
C          0.20292         7.37758        -0.20945
C          1.12565         8.08187         0.76907
C          2.41409         7.36306         1.10743
C          3.66895         8.02667         0.58693
C          5.01413         7.39486         0.86432
C          6.23021         8.10725         0.33871
C          7.42548         7.31109         0.00680
C         -6.12213         9.45726        -0.10986
C         -4.98790        10.17020        -0.17171
C         -3.60290         9.61075        -0.40440
C         -2.51350         9.90495         0.62068
C         -1.30722         9.32320         0.46762
C         -0.09475         9.68420         1.28640
C          1.20988         9.55562         0.52721
C          2.35844        10.22858         0.32467
C          3.60254         9.44059         0.05908
C          4.89148        10.13175        -0.21419
C          6.07203         9.48446        -0.20324
C        -11.09976        -0.56370        -0.91097
C        -10.06454        -1.36818        -0.21592
C         -8.91282        -0.57885         0.45266
C         -7.59925        -1.26330         0.77727
C         -6.31336        -0.47344         0.83278
C         -4.94393        -1.19612         0.89896
C         -3.90201        -0.64295        -0.07420
C         -2.65934        -1.44169        -0.39619
C         -1.30333        -0.75715        -0.40361
C         -0.17386        -1.49869         0.32396
C          1.15308        -0.76161         0.15749
C          2.41964        -1.49305        -0.10724
C          3.71744        -0.91410         0.41699
C          4.90600        -1.46910        -0.38449
C          6.17133        -0.67470        -0.57119
C          7.45576        -1.41618        -0.80162
C          8.64714        -0.59412        -0.39623
C          9.88685        -1.30461         0.03626
C         11.14324        -0.51086         0.03605
C         -9.77289        -2.74399        -0.58298
C         -8.81472        -3.54021         0.16987
C         -7.62221        -2.78522         0.81936
C         -6.32198        -3.54398         0.99652
C         -4.99878        -2.77715         0.91976
C         -3.78220        -3.58498         0.52209
C         -2.66473        -2.92033        -0.22261
C         -1.35420        -3.64664        -0.38991
C         -0.07991        -2.91778        -0.18924
C          1.12740        -3.69501         0.22625
C          2.41861        -3.00767        -0.09799
C          3.71635        -3.74770        -0.05577
C          4.99610        -2.96730        -0.33291
C          6.34954        -3.53792         0.10997
C          7.51175        -2.99024        -0.82056
C          8.82777        -3.56242        -0.30862
C          9.90304        -2.79857        -0.01001
C         -8.71061        -5.01424        -0.03592
C         -7.62096        -5.72851         0.32622
C         -6.35217        -5.03280         0.69772
C         -5.11407        -5.78161         0.28249
C         -3.78823        -5.10227         0.46811
C         -2.57660        -5.86280         0.01642
C         -1.34320        -5.15419        -0.44951
C         -0.05048        -5.90841        -0.37105
C          1.14585        -5.18294         0.16901
C          2.46689        -5.92011         0.35872
C          3.76024        -5.15758         0.46046
C          5.10126        -5.84833         0.49036
C          6.38172        -5.07296         0.26505
C          7.59029        -5.83165        -0.17544
C          8.90575        -5.08082        -0.44223
C         -7.63898        -7.23249         0.60586
C         -6.45849        -8.02676        -0.04055
C         -5.13430        -7.26397         0.04517
C         -3.84348        -7.97516         0.52111
C         -2.62965        -7.36029        -0.17896
C         -1.35544        -8.12792        -0.16335
C         -0.04993        -7.41123        -0.33087
C          1.22773        -8.14884        -0.15489
C          2.51381        -7.36843        -0.02477
C          3.81323        -8.08627         0.05998
C          5.08840        -7.35427         0.41196
C          6.36282        -8.03757        -0.00053
C          7.54617        -7.18561        -0.30606
C         -6.30903        -9.44478         0.47399
C         -5.13686       -10.11723         0.53204
C         -3.82101        -9.49442         0.40056
C         -2.63476       -10.16879         0.41804
C         -1.30943        -9.43907         0.62117
C         -0.00166       -10.21170         0.37658
C          1.19398        -9.60875         0.15083
C          2.50666       -10.31538        -0.22416
C          3.82141        -9.60547         0.25920
C          5.06529       -10.12220        -0.46063
C          6.20003        -9.40332        -0.57897
O         -0.58636        -3.09478        -1.51470
O          2.91586        -3.67965        -1.29104
O          5.92468        -5.40726         1.62099
O          4.64258         3.08609         2.19422
O          4.82250         0.70230         1.75857
O         -5.51848         2.66990        -1.88401
O         -6.33248        -4.52849         2.06963
O         -5.07357        -6.33287        -1.08772
O         -0.65963        -5.55255        -1.65740
O         -0.73431         9.01027        -1.76516
O          0.27522         8.39917         1.96061
O         -1.32078         5.56474        -2.08805
O         -7.05385        -0.75013         2.04878
O          3.02480        -5.54477         1.65596
O         -6.33231         5.44961        -2.66131
O         -4.72863         6.09895         0.63199
O          1.73581        -0.83287        -1.18829
O         -3.69081        -7.71954         1.89143
O         -2.19753        -8.01776        -1.37159
O         -2.38120         2.43796         0.85919
O          4.76040        -2.27090        -1.58043
O          6.29103         1.43027        -1.67577
O          0.04012         3.05893        -1.49353
O         -4.35973         0.03088        -1.29099
O          9.47624         1.25481        -1.92187
O          8.91799        -0.75572         1.03091
O          0.67384        -7.92261        -1.50355
O         -8.06511         2.12755        -2.12448
O          6.87450         4.24133         1.77314
O          7.30296        -3.48547        -2.07628
O          2.34805         2.00223         2.29901
O         -3.61531         4.20789        -2.24346
O          0.13787         0.98749         1.64995
O         -3.18356         7.83048        -2.00387
O          3.44922         8.27929        -0.84003
O         -7.04353         1.90840         1.42651
O         -2.84270        -5.62102         1.44423
O         -0.95290        -0.01035        -1.59837
O          5.91474        -7.98682         1.41809
O          2.32279         6.71621         2.38471
O         -9.87548         1.47234         1.28460
O          0.55205         4.37004         1.83078
O          5.87282         8.09550         1.79566
O         -4.01136        -3.18925         1.90250
O         -9.99953        -1.08699         1.22975
O         -3.02042        -2.32532        -1.50768
O          0.92212         6.63190        -1.21003
O          0.86867        -4.44761         1.42924
O          6.99878         3.82540        -1.75336
O         -8.71043        -3.24810         1.62219
O          3.33450        -7.61580        -1.23389
O          4.53043         5.57156         2.41220
O          6.74235        -0.89457        -1.91121
O         -7.62331        -7.38762         2.02501
H         -6.94126        -6.80331         2.41844
O         -1.26536        -9.04003         2.01813
H         -2.12746        -8.57915         2.22972
O         -4.40916        -0.77773         2.17513
H         -4.97559        -1.15779         2.88387
O          2.53388       -10.40459        -1.64940
H          2.41254        -9.49949        -2.01601
O         -0.52254        -1.59509         1.71050
H         -0.41683        -0.70819         2.13476
O          3.93161        -9.86833         1.66803
H          4.74751        -9.41441         1.99107
O         -4.60669         2.15662         1.68893
H         -4.54168         1.36237         2.26583
O          5.54665         3.87524        -1.84262
H          5.37008         3.23283        -2.57690
O          9.92980        -5.61486         0.39689
H          9.63280        -5.55949         1.32824
O         -6.15025         7.93312         1.64937
H         -5.85871         7.02969         1.91365
O         -3.16811        10.26495        -1.60940
H         -2.29982         9.85312        -1.89476
O          3.79832        -1.56980         1.71489
H          4.44004        -1.07032         2.27336
O         -6.80688        -8.17735        -1.43903
H         -6.23522        -7.57348        -1.96469
O          6.58829        -2.96510         1.40187
H          6.39301        -3.65617         2.08075
H         12.08501        -1.03393         0.26027
H         12.09379         1.38114        -0.07170
H         10.84486         3.55703        -0.01623
H          9.64693         5.76387        -0.14920
H          8.28755         7.83870        -0.43065
H          6.99020        10.01015        -0.50634
H          4.84588        11.18150        -0.54056
H          2.42302        11.32514         0.37438
H         -0.24591        10.52960         1.99545
H         -2.65315        10.71089         1.35927
H         -5.06230        11.26452        -0.26946
H         -7.08777         9.98237        -0.05099
H         -8.32354         7.61660         0.35866
H         -9.54050         5.72322        -0.07444
H        -11.05572         3.70012        -0.17861
H        -12.02924         1.28833        -1.33269
H        -11.84230        -1.11671        -1.50535
H        -10.21516        -3.16573        -1.49658
H         -9.64047        -5.53743        -0.30907
H         -8.59737        -7.66829         0.23099
H         -7.24550        -9.99698         0.64402
H         -5.15314       -11.19041         0.78147
H         -2.64020       -11.27085         0.40335
H         -0.03736       -11.30649         0.49935
H          2.51220       -11.35659         0.18183
H          5.02167       -11.13064        -0.89905
H          7.06291        -9.83070        -1.11339
H          8.45309        -7.70609        -0.65419
H          9.21408        -5.29637        -1.50058
H         10.85100        -3.29782         0.25180
