         346
 CSIRO Nanostructure Databank - Neutral Graphene Oxide Data Set
C          1.21023         3.30380         0.68227
C         -0.00666         3.96714         0.55851
C          1.11403         6.13700         0.69893
C         -0.05531         5.36230         0.53684
C          1.06839         7.59667         0.57552
C         -0.03265         8.27329         0.08248
C          1.08458        10.46838         0.08282
C         -0.05326         9.68507        -0.07634
C          1.06747        11.93082        -0.06530
C         -0.14797        12.66166        -0.15150
C          1.06009        14.78380        -0.29548
C         -0.14799        14.03822        -0.26617
C          1.06552        16.22927        -0.33234
C         -0.10563        16.99998        -0.59690
C          1.08217        19.14600        -0.48533
C         -0.06948        18.38302        -0.76055
C          1.12734        20.57214        -0.53194
C         -0.03000        21.32658        -0.84351
C          1.16768        23.44032        -0.65330
C         -0.00700        22.71552        -0.89797
C          1.13243        24.94262        -0.85118
C          0.02980        25.65221        -0.07943
C          1.15125        27.82738        -0.26242
C          0.02225        27.01084         0.08344
C          1.19745        29.22658        -0.16263
C          3.67261         3.34501         0.81093
C          2.40751         4.03648         0.84837
C          3.58321         6.19150         1.22722
C          2.34098         5.45741         0.92729
C          3.59371         7.69079         1.16382
C          2.26152         8.40654         0.89702
C          3.54294        10.46826         0.39329
C          2.31647         9.80690         0.43589
C          3.54425        11.87690        -0.09295
C          2.27610        12.64491        -0.09759
C          3.53063        14.81122        -0.30372
C          2.29756        14.07044        -0.22477
C          3.50999        16.22531        -0.28816
C          2.29533        16.92901        -0.21645
C          3.55644        19.14246         0.16261
C          2.21824        18.40028         0.16938
C          3.57551        20.61097        -0.05023
C          2.36658        21.29263        -0.29517
C          3.59347        23.43436        -0.13415
C          2.37133        22.73792        -0.37035
C          3.55410        24.90284         0.03011
C          2.39041        25.62830        -0.43178
C          3.70552        27.85953        -0.38755
C          2.39751        27.09587        -0.51595
C          3.66500        29.31654        -0.13883
C          2.39860        29.94996        -0.14681
C          6.14089         3.32529         0.63108
C          4.88981         4.00468         0.79001
C          6.09630         6.24838         0.74501
C          4.90177         5.45829         1.08066
C          6.08575         7.63396         0.72526
C          4.84652         8.39986         0.86332
C          6.04878        10.55113         0.56161
C          4.78469         9.77653         0.60491
C          6.08157        11.96664         0.20488
C          4.82286        12.64607        -0.15029
C          6.00163        14.79814        -0.16118
C          4.80632        14.12599        -0.20702
C          6.06636        16.23328        -0.49021
C          4.75796        17.00611        -0.65378
C          6.10764        19.14373        -0.16145
C          4.83568        18.38435        -0.01012
C          6.05324        20.56841        -0.17553
C          4.83384        21.29690        -0.11560
C          6.05480        23.48884         0.02082
C          4.82902        22.75216        -0.08263
C          6.11460        24.90516         0.21018
C          4.84770        25.67075         0.27424
C          6.08633        27.82842         0.19215
C          4.92439        27.12944        -0.00371
C          6.12484        29.28367         0.12089
C          4.88594        29.98516         0.03842
C          8.59789         3.33846         0.37693
C          7.34979         4.00735         0.49952
C          8.57955         6.20000         0.61520
C          7.30752         5.49293         0.21942
C          8.53758         7.66249         0.40301
C          7.34908         8.33254         0.45105
C          8.54735        10.55273        -0.01793
C          7.37687         9.81149         0.46576
C          8.53485        11.94388         0.01602
C          7.28053        12.64356         0.16562
C          8.54875        14.85713         0.18058
C          7.23935        14.13064         0.38878
C          8.54857        16.23123         0.19363
C          7.34525        16.98108        -0.23324
C          8.58764        19.15431         0.00923
C          7.32160        18.45667        -0.12630
C          8.59870        20.58467        -0.12668
C          7.33039        21.26234        -0.38866
C          8.59735        23.44123         0.09523
C          7.30865        22.80543        -0.26366
C          8.60837        24.93903         0.32539
C          7.31061        25.62129         0.25543
C          8.64004        27.81778         0.48020
C          7.32263        27.07926         0.48560
C          8.62118        29.28167         0.22162
C          7.36407        29.94994         0.15335
C         11.05830         3.35607         0.03678
C          9.83870         4.00720         0.28195
C         11.14153         6.20277         0.30548
C          9.88388         5.46606         0.54104
C         11.10173         7.68563         0.29222
C          9.78505         8.32121        -0.04046
C         11.02947        10.52044        -0.62781
C          9.75624         9.77642        -0.36177
C         10.97167        12.01374        -0.64708
C          9.75494        12.72602        -0.16772
C         11.09049        14.81184         0.29200
C          9.77487        14.08134         0.09352
C         10.99737        16.28704        -0.05909
C          9.79669        16.99949         0.55618
C         11.04671        19.20468         0.52190
C          9.77918        18.45902         0.19337
C         11.10423        20.63862         0.04523
C          9.82376        21.32224        -0.14132
C         11.11113        23.42870        -0.54980
C          9.82170        22.71503        -0.23288
C         11.05137        24.96392        -0.43165
C          9.84956        25.69352         0.03446
C         11.11723        27.81972         0.06383
C          9.88153        27.06629         0.16118
C         11.09840        29.24758         0.09477
C          9.83815        29.94471         0.09581
C         13.50300         3.37468        -0.24907
C         12.29149         4.05842        -0.06397
C         13.56501         6.21664        -0.16088
C         12.31679         5.51722         0.04103
C         13.69354         7.71769         0.10078
C         12.36554         8.46759         0.09614
C         13.51873        10.53751        -0.67657
C         12.34836         9.85551        -0.45645
C         13.54763        11.98566        -1.13123
C         12.26138        12.76020        -0.80983
C         13.56225        14.88663        -0.34892
C         12.27720        14.18348        -0.40369
C         13.54559        16.31230        -0.55544
C         12.23767        17.04697        -0.39318
C         13.61182        19.18320         0.08086
C         12.32744        18.43834         0.16018
C         13.58074        20.66893         0.23105
C         12.28842        21.33504         0.16609
C         13.55595        23.57053         0.13476
C         12.23589        22.84725         0.31469
C         13.60223        24.91382        -0.04694
C         12.36516        25.69614        -0.30962
C         13.56999        27.84951        -0.03454
C         12.35547        27.14082         0.00339
C         13.55277        29.25713        -0.06452
C         12.33039        29.94121         0.00756
C         15.96556         3.38124        -0.33002
C         14.73748         4.06363        -0.36678
C         16.00226         6.22736        -0.56772
C         14.73078         5.51501        -0.41618
C         16.01949         7.61128        -0.69191
C         14.70853         8.34099        -0.86584
C         15.98454        10.54532        -0.74248
C         14.80269         9.84387        -0.67978
C         15.99783        11.99806        -0.65591
C         14.82232        12.69418        -0.65424
C         16.10928        14.87849        -0.30525
C         14.81632        14.11416        -0.13664
C         16.11621        16.32719        -0.21680
C         14.87998        17.05810        -0.59972
C         16.05205        19.19393         0.21134
C         14.86221        18.60425        -0.58856
C         16.09477        20.71866        -0.07392
C         14.76753        21.35513         0.30639
C         16.08976        23.52957         0.61715
C         14.77748        22.81863         0.52083
C         16.11727        24.97968         0.36844
C         14.80215        25.72039         0.41763
C         16.09511        27.84014         0.16910
C         14.86158        27.08736        -0.26272
C         16.08409        29.27477         0.10441
C         14.84282        29.96276        -0.42377
C         18.45994         3.36455        -0.19488
C         17.20555         4.07217        -0.33664
C         18.51049         6.16225        -0.63208
C         17.22156         5.47274        -0.49522
C         18.53304         7.68776        -0.59019
C         17.23431         8.41177        -0.33101
C         18.51226        10.54498        -0.27594
C         17.31203         9.83756        -0.90760
C         18.53685        11.95145        -0.25955
C         17.33697        12.70293        -0.82081
C         18.55238        14.80789        -0.04992
C         17.28342        14.15760        -0.37324
C         18.56683        16.32459         0.17029
C         17.30844        17.04302        -0.05475
C         18.56063        19.15427         0.15349
C         17.35815        18.48030        -0.01799
C         18.56681        20.59369         0.53689
C         17.33137        21.39668         0.47982
C         18.60812        23.52483         0.55248
C         17.36644        22.77289         0.56175
C         18.57868        24.95351         0.49584
C         17.30628        25.66510         0.39904
C         18.50498        27.83481         0.58498
C         17.29349        27.13065         0.39395
C         18.45348        29.30791         0.90655
C         17.20498        29.98747         0.42277
C         19.65922         4.02185        -0.12647
C         20.90413         6.18110        -0.06901
C         19.74372         5.44888        -0.27480
C         20.90860         7.60253        -0.00076
C         19.75795         8.36165        -0.14056
C         20.82267        10.53236         0.48600
C         19.68626         9.81312         0.06019
C         20.86624        11.92227         0.40965
C         19.74865        12.64654        -0.02670
C         21.04557        14.89267        -0.06774
C         19.82594        14.10571        -0.47942
C         21.04282        16.23866         0.10493
C         19.84163        17.05103         0.06701
C         21.03789        19.24355        -0.07272
C         19.82614        18.45053         0.06196
C         21.06912        20.59019         0.08235
C         19.89321        21.35142         0.55243
C         21.03514        23.59097         0.41327
C         19.84999        22.83832         0.48974
C         21.00862        24.98068         0.44106
C         19.78887        25.68944         0.48142
C         20.92888        27.92512         0.45987
C         19.75967        27.15850         0.53194
C         20.88396        29.35090         0.39609
C         19.71493        30.03430         0.53537
O         10.80626        11.24129        -1.89010
O         14.29955        16.55602        -1.81802
O          6.96967        16.51040        -1.62128
O          4.31911         5.72790         2.40631
O         17.57774        12.67581        -2.23389
O          3.17574        27.50691        -1.71438
O          8.67910        23.99210         1.45966
O         18.55781        15.36267         1.29519
O          6.87728        10.31214         1.75790
O          9.60395         8.75530        -1.43226
O         11.74015         8.38026         1.43801
O          7.99577        27.45490         1.74766
O          3.99461        25.35265         1.41514
O         13.25690        18.43534         1.30406
O         19.31289        20.81070         1.78957
O          2.79912         8.25247         2.25396
O         18.60768         6.99358        -1.85315
O         11.25269        16.73457        -1.41803
O         11.69375        25.54080        -1.62284
O         15.28210        23.21736         1.86841
O          9.22091         5.80086         1.84990
O          7.35088        22.15476        -1.56318
O          4.32119        18.62171         1.33547
O          4.26193        12.03128        -1.38513
O         12.03468        13.82377        -1.81495
O          0.91338        25.15834        -2.28451
H          1.07223        26.10899        -2.46878
O         19.84784        14.07422        -1.92877
H         19.04641        13.54291        -2.23702
O          1.79577        18.36217         1.57645
H          2.61387        18.20746         2.10500
O         11.39861        14.73346         1.70770
H         10.80888        15.38495         2.17331
O         15.75083        19.01014         1.61285
H         16.53960        19.26640         2.13618
O         18.39720        29.38352         2.39657
H         19.19728        28.92452         2.73260
O         14.99095        26.88317        -1.69477
H         15.05751        27.77643        -2.10672
O          9.89956        16.91281         2.01971
H         10.27330        17.78303         2.33616
O          4.58510        17.29043        -2.07037
H          5.46268        17.14304        -2.50129
O          7.25128         5.61093        -1.24048
H          6.49855         5.07232        -1.56293
O         14.68589        13.93276         1.35135
H         14.98676        14.76117         1.78626
O         13.65254        11.92690        -2.57360
H         13.25391        12.75147        -2.93457
O         17.11972         8.56027         1.12208
H         16.17139         8.44865         1.38118
O         14.88266        18.98355        -1.95136
H         15.41121        19.83416        -2.06405
O         17.56258         9.81523        -2.32972
H         17.61802        10.77445        -2.60172
O         14.94359        29.91525        -1.86914
H         14.12744        30.30753        -2.24359
O         11.87688        23.09985         1.69902
H         12.60613        22.77898         2.27111
O         14.54441        25.97191         1.82962
H         14.67688        25.10968         2.29395
O         11.40325        23.07478        -1.91835
H         11.73733        23.88981        -2.36679
O         11.02732        19.32410         1.99517
H         11.97882        19.30037         2.27577
O         14.21959         8.09492        -2.20520
H         14.78071         8.59819        -2.83323
O         14.27415         7.86050         1.42430
H         13.51939         7.87801         2.06089
O          7.04346        14.25007         1.85649
H          7.73971        13.71606         2.29659
O         16.30763        20.99540        -1.44311
H          1.25048         2.20609         0.64211
H         -0.93540         3.39120         0.44481
H         -1.02773         5.85538         0.40672
H         -0.94699         7.72305        -0.17922
H         -1.00016        10.14770        -0.38603
H         -1.10939        12.13164        -0.11353
H         -1.11221        14.56268        -0.31033
H         -1.05724        16.48451        -0.78780
H         -0.98482        18.87899        -1.11331
H         -0.97804        20.81129        -1.04642
H         -0.92599        23.25837        -1.15922
H         -0.79150        25.05223         0.34218
H         -0.84949        27.49298         0.55236
H          0.25348        29.77457        -0.02333
H          3.65286         2.25241         0.67866
H          2.35725        31.04218        -0.02765
H          6.14061         2.22412         0.65091
H          4.89318        31.08331         0.10573
H          8.59593         2.23702         0.35996
H          7.36922        31.04687         0.05592
H         11.06488         2.26424        -0.10388
H          9.84589        31.03932        -0.02322
H         13.50431         2.27409        -0.25194
H         12.32293        31.04180        -0.02986
H         15.96704         2.28366        -0.24835
H         14.81701        31.03798        -0.09216
H         18.42636         2.27067        -0.08871
H         17.19409        31.08769         0.38774
H         20.58641         3.45579         0.04691
H         21.84169         5.64675         0.14470
H         21.85950         8.08892         0.25865
H         21.72653         9.99329         0.80159
H         21.80451        12.44080         0.65168
H         22.01218        14.36728        -0.04503
H         22.00164        16.74616         0.29046
H         21.95849        18.72538        -0.37738
H         22.00204        21.13153        -0.13161
H         22.00794        23.08194         0.37422
H         21.96442        25.52074         0.42863
H         21.90937        27.43993         0.37043
H         21.82142        29.89422         0.20815
H         19.69758        31.13340         0.50462
