         429
 CSIRO Nanostructure Databank - Neutral Graphene Oxide Data Set
C          1.37785         3.61233        -1.10242
C          0.15093         4.30668        -1.25005
C          1.34190         6.51421        -1.24827
C          0.10737         5.66555        -1.39042
C          1.37073         7.74345        -2.17552
C          0.11034         8.56751        -2.12968
C          1.34914        10.70214        -2.04914
C          0.10591         9.90576        -2.14278
C          1.26941        12.18441        -1.79041
C         -0.00281        12.93492        -1.68701
C          1.22493        15.01350        -1.15619
C          0.00280        14.25671        -1.40573
C          1.18220        16.41275        -0.93646
C         -0.01080        17.20993        -1.13921
C          1.03269        19.14321         0.03077
C         -0.07331        18.51577        -0.78032
C          1.07667        20.66184         0.04164
C         -0.10417        21.41173         0.05111
C          1.10874        23.48632         0.50747
C         -0.09396        22.79220         0.26133
C          1.14074        24.94117         0.74085
C         -0.06116        25.64845         1.00860
C          1.10689        27.77529         1.27847
C         -0.04209        27.01616         1.34620
C          1.08794        29.24309         1.69913
C         -0.11629        29.99019         1.17752
C          1.11336        32.10732         0.88282
C         -0.08126        31.31725         0.85445
C          1.14498        33.54110         0.80912
C         -0.06131        34.29857         0.66814
C          1.19292        36.37963         0.53192
C         -0.03740        35.66878         0.54834
C          1.22167        37.80239         0.39874
C          3.82499         3.58063        -1.11118
C          2.61210         4.28781        -1.20890
C          3.81825         6.39328        -1.66613
C          2.63141         5.72465        -1.41768
C          3.83062         7.83762        -1.79278
C          2.63143         8.54655        -1.87714
C          3.77870        10.66429        -1.39379
C          2.61233         9.96648        -1.76200
C          3.71588        12.07714        -0.95965
C          2.43207        12.83800        -1.10880
C          3.67621        14.97517        -0.75733
C          2.45276        14.31162        -1.05265
C          3.63840        16.37763        -0.54350
C          2.39006        17.11234        -0.58308
C          3.63400        19.24841        -0.24255
C          2.34569        18.48187        -0.28968
C          3.54207        20.61989         0.36763
C          2.30288        21.34231         0.27726
C          3.61186        23.42656         0.64052
C          2.30370        22.74258         0.51857
C          3.64138        24.92437         0.69391
C          2.35569        25.63667         0.77490
C          3.66925        27.75143         1.21717
C          2.36659        27.14635         0.71950
C          3.66662        29.22227         1.62456
C          2.37134        29.88257         1.20004
C          3.65517        32.08302         0.94207
C          2.38456        31.38434         0.86433
C          3.66206        33.55170         1.24054
C          2.38315        34.24548         0.83567
C          3.66358        36.37538         0.60324
C          2.41409        35.65398         0.66753
C          3.66313        37.78725         0.40005
C          2.40959        38.48443         0.34185
C          6.25488         3.52890        -1.02729
C          5.08178         4.21484        -1.28870
C          6.41837         6.38014        -1.73844
C          5.09355         5.63199        -1.74279
C          6.43219         7.88470        -1.67307
C          5.09397         8.60561        -1.77152
C          6.23149        10.70912        -1.03896
C          5.03753        10.01352        -1.34299
C          6.18763        12.13723        -0.84044
C          4.98202        12.82882        -0.82912
C          6.11050        14.94939        -0.25339
C          4.93001        14.25920        -0.64041
C          6.01990        16.30990         0.15255
C          4.80051        17.02891        -0.03407
C          5.68718        18.91675         1.20637
C          4.72546        18.39292         0.32861
C          5.60223        20.29238         1.58481
C          4.65558        21.17873         1.02800
C          6.06968        23.42207         1.47026
C          4.75236        22.65548         1.24695
C          6.09780        24.89391         1.18412
C          4.90741        25.60728         1.06728
C          6.15596        27.75714         1.32578
C          4.85488        27.05030         1.20910
C          6.13677        29.24946         1.18080
C          4.86511        29.95988         1.09250
C          6.12443        32.07647         0.75360
C          4.86093        31.35144         0.90105
C          6.09954        33.51430         0.66761
C          4.92784        34.23450         0.76987
C          6.10260        36.38287         0.36973
C          4.91150        35.68094         0.61227
C          6.10506        37.78761         0.13494
C          4.87994        38.47658         0.19743
C          8.66995         3.53174        -0.29762
C          7.57907         4.15044        -1.05611
C          8.75513         6.41371        -0.67228
C          7.66922         5.66001        -1.32791
C          8.71001         7.83621        -0.58357
C          7.54987         8.59385        -1.01758
C          8.65163        10.72383        -0.41594
C          7.47653         9.98731        -0.85437
C          8.65914        12.11776        -0.34656
C          7.47991        12.91562        -0.82154
C          8.54241        14.91764         0.27750
C          7.38761        14.27391        -0.15466
C          8.49850        16.38081         0.60075
C          7.12207        16.93935         0.81372
C          8.80277        19.27312         1.93844
C          6.84162        18.11717         1.49211
C          8.72745        20.65272         1.85090
C          7.51797        21.44179         1.98412
C          8.59026        23.37719         0.85833
C          7.38851        22.72086         1.52037
C          8.59894        24.88771         0.96099
C          7.38295        25.57747         1.08912
C          8.56475        27.68999         0.65957
C          7.39550        27.01229         0.98814
C          8.53395        29.11528         0.28660
C          7.28834        29.91452         0.51370
C          8.53846        32.05909         0.18078
C          7.32232        31.39224         0.55819
C          8.61615        33.44858         0.19400
C          7.42832        34.23466         0.72847
C          8.65466        36.40676         0.29878
C          7.36244        35.61248         0.06323
C          8.57146        37.83335        -0.21428
C          7.33777        38.46925        -0.19411
C         10.99583         3.54244         0.45291
C          9.81020         4.23683         0.00089
C         10.97708         6.39811         0.35167
C          9.85409         5.69233        -0.14202
C         10.98626         7.79551         0.33519
C          9.84374         8.52554        -0.07599
C         11.03048        10.66811         0.15725
C          9.85343         9.98449        -0.06690
C         11.14605        12.12160        -0.22798
C          9.85085        12.85517        -0.02336
C         11.07052        14.94372         0.52882
C          9.82139        14.21834         0.27402
C         11.06722        16.30341         0.79412
C          9.80406        17.11861         0.85674
C         11.13359        19.19072         1.34493
C          9.93693        18.50918         1.46097
C         11.25892        20.60820         1.73694
C          9.97089        21.41568         1.77769
C         11.08439        23.47969         0.98869
C          9.92791        22.80096         1.29372
C         11.06878        24.88647         0.66285
C          9.83700        25.58544         0.76481
C         11.01479        27.74052         0.34132
C          9.83212        27.02076         0.58273
C         10.99882        29.15149         0.03890
C          9.78903        29.83062         0.04103
C         10.97746        31.98938        -0.61639
C          9.68182        31.25876        -0.31061
C         11.00579        33.45608        -0.47124
C          9.82339        34.13813        -0.15794
C         11.01155        36.34976        -0.71371
C          9.77598        35.61470        -0.35057
C         11.02610        37.83766        -0.59825
C          9.79594        38.51207        -0.46723
C         13.39453         3.49484         0.93418
C         12.15453         4.20033         0.78010
C         13.44894         6.36435         0.82363
C         12.11959         5.68481         1.04612
C         13.48817         7.75900         0.75116
C         12.19204         8.52784         0.88851
C         13.58589        10.63082         0.29726
C         12.28382         9.90292         0.27282
C         13.58271        12.10293         0.40347
C         12.37421        12.82139         0.30131
C         13.59761        14.90094         0.67453
C         12.34943        14.22133         0.48994
C         13.63489        16.32272         0.76230
C         12.34598        17.04596         0.66187
C         13.63453        19.24530         0.94786
C         12.34181        18.53907         0.80354
C         13.69241        20.61118         1.00076
C         12.49364        21.36886         1.38429
C         13.49708        23.38542         0.17504
C         12.41248        22.82527         1.06984
C         13.51308        24.89374         0.23497
C         12.31178        25.57386         0.42775
C         13.52062        27.73634        -0.08050
C         12.34347        27.07442         0.59856
C         13.47958        29.12623        -0.35004
C         12.24338        29.85713        -0.27627
C         13.45016        31.94379        -0.84450
C         12.24146        31.23111        -0.54778
C         13.40097        33.38894        -1.02054
C         12.25089        34.12264        -0.75599
C         13.35077        36.35259        -1.49755
C         12.34073        35.63164        -0.58172
C         13.46618        37.79110        -1.02015
C         12.26111        38.49194        -0.73128
C         15.85643         3.43789         1.03238
C         14.60969         4.15208         0.90897
C         15.87883         6.26740         0.65199
C         14.64711         5.60625         0.77454
C         15.94124         7.68085         0.70690
C         14.73268         8.44291         0.73180
C         15.99444        10.57465         0.83104
C         14.80094         9.88818         0.68963
C         16.04035        12.01436         0.79516
C         14.81734        12.75776         0.66419
C         16.08215        14.86640         0.85475
C         14.83261        14.18016         0.73729
C         16.09944        16.29880         0.89835
C         14.85681        17.00023         0.89865
C         16.15980        19.24494         1.12246
C         14.86409        18.46628         1.10648
C         16.14653        20.67152         0.74056
C         14.91622        21.35939         0.76831
C         16.01318        23.42653         0.04821
C         14.84316        22.73189         0.41036
C         15.95500        24.85306        -0.22118
C         14.74567        25.57779        -0.06071
C         15.91965        27.67951        -0.66756
C         14.71765        27.00582        -0.26027
C         15.90286        29.09896        -0.84857
C         14.67851        29.82087        -0.72993
C         15.90361        31.91845        -1.46121
C         14.65757        31.23167        -0.94218
C         15.94767        33.39854        -1.18767
C         14.66183        34.09416        -1.38584
C         15.95136        36.28300        -1.29477
C         14.67678        35.58882        -1.56471
C         15.94109        37.70406        -1.10027
C         14.69749        38.41592        -0.96791
C         18.32243         3.36631         1.04571
C         17.07116         4.06065         0.87984
C         18.40315         6.20316         0.70124
C         17.12553         5.47874         0.36179
C         18.41815         7.63550         0.72803
C         17.20968         8.34766         0.74486
C         18.45786        10.50595         0.48716
C         17.26276         9.80732         1.13376
C         18.53501        11.92649         1.02439
C         17.27380        12.71468         0.94376
C         18.57988        14.86868         1.05112
C         17.29866        14.12285         0.96576
C         18.57064        16.31431         0.72303
C         17.35523        17.00344         0.86394
C         18.66518        19.19202         0.49280
C         17.42129        18.46437         0.98829
C         18.54185        20.60334         0.07148
C         17.31874        21.32829         0.26771
C         18.42383        23.39088        -0.54993
C         17.24897        22.71613        -0.07024
C         18.38574        24.79419        -0.80354
C         17.15374        25.53407        -0.61881
C         18.30845        27.63655        -1.42548
C         17.11381        26.92327        -0.84934
C         18.39892        29.05332        -0.89799
C         17.14254        29.83057        -0.98383
C         18.42641        31.94684        -1.12855
C         17.18051        31.20298        -1.11820
C         18.41233        33.37499        -1.16774
C         17.14079        34.09400        -1.20479
C         18.39118        36.25805        -1.08182
C         17.14821        35.55451        -1.20089
C         18.38659        37.68583        -0.98894
C         17.15456        38.38243        -0.95940
C         19.51669         4.03128         0.99627
C         20.82948         6.16828         0.99695
C         19.57720         5.47149         0.87199
C         20.88790         7.53225         0.92678
C         19.69830         8.33282         0.78064
C         20.96819        10.45563         0.43370
C         19.74858         9.72435         0.65033
C         21.02042        11.81687         0.47921
C         19.87665        12.61312         0.97173
C         21.01942        14.84301         0.33250
C         19.90629        14.11941         0.97074
C         20.95139        16.16896         0.05889
C         19.77389        16.97579         0.31095
C         20.82732        19.04890        -0.66527
C         19.77687        18.36364         0.00647
C         20.78657        20.41008        -0.87861
C         19.65068        21.22076        -0.53039
C         20.78370        23.33933        -1.20337
C         19.61985        22.64379        -0.77881
C         20.77967        24.70404        -1.36205
C         19.59134        25.47641        -1.18465
C         20.80318        27.63492        -1.57428
C         19.61011        26.88836        -1.33416
C         20.85445        29.00331        -1.50064
C         19.70421        29.78068        -1.00951
C         20.86491        31.99104        -1.14005
C         19.66876        31.25965        -1.09488
C         20.84890        33.37880        -1.15284
C         19.63368        34.09503        -1.14528
C         20.82371        36.29324        -0.99562
C         19.63398        35.55792        -1.07954
C         20.81336        37.69594        -0.90585
C         19.61771        38.38922        -0.89683
O         15.50456        18.89019         2.38039
O         13.04975        10.03721        -0.98247
O          8.08402         4.70013        -2.33401
O          5.14200        23.10976         2.57232
O         19.32069        12.07113         2.22679
O          9.16670        17.17398        -0.47680
O          2.78248        12.23800         0.19377
O          5.85438         5.87112        -2.97142
O          7.71881        18.57234         2.46782
O         10.73670        21.07553         3.00507
O          2.36504        30.28153        -0.15485
O          6.36741        28.62669         2.52325
O         19.18475        29.25236         0.30012
O          1.53942        11.68460        -3.14648
O         18.42186        18.95778         1.93054
O         10.08131        35.92228        -1.75939
O         10.07804        31.54371        -1.69453
O          6.44011        20.75867         2.58171
O          5.99275         8.46099        -2.93542
O         12.84507        22.40507         2.38295
O         12.23959        17.94185        -0.54121
O          7.54357        29.36429        -0.81867
O         19.42960        14.65025         2.23906
O         14.67276        34.71452        -2.75571
O          3.90532        24.17375        -0.59043
O          4.03209        19.51665        -1.65556
H          4.12637        18.64552        -2.09829
O          1.03092        29.30259         3.14880
H          1.93915        29.12872         3.49581
O          8.46488        23.05834        -0.57292
H          9.18371        23.52526        -1.05028
O          2.36205        27.46767        -0.73059
H          2.99440        26.85960        -1.17172
O          3.74975        29.24469         3.08664
H          4.67635        28.96869         3.31130
O         18.03471        27.79782        -2.86504
H         17.94784        26.90261        -3.25513
O          0.72700        18.80462         1.44313
H          0.69796        17.82518         1.50062
O          1.33549         7.03828         0.11749
H          1.23080         6.27759         0.72674
O          7.29334        35.33220        -1.35942
H          7.65574        36.09764        -1.85427
O         15.80594        31.82956        -2.93366
H         15.24307        32.57420        -3.24216
O          3.72091        33.67105         2.72467
H          3.70325        34.62884         2.93824
O          1.48140         7.23145        -3.52580
H          1.61896         7.98867        -4.13234
O         11.33762        12.09183        -1.69279
H         12.04025        11.41413        -1.86231
O         12.57168        27.28514         2.04808
H         13.36158        26.75949         2.29970
O          7.64124        34.39064         2.17474
H          7.46869        33.52416         2.60101
O         12.81117        35.84668         0.77867
H         12.09184        35.61019         1.40136
O          7.75013        13.21864        -2.24003
H          8.67631        13.53927        -2.30156
O         11.84551         5.84294         2.49385
H         11.05020         5.30638         2.70023
O         13.09420        23.01205        -1.18590
H         13.74028        23.40657        -1.80917
O         17.47172         9.84119         2.57154
H         16.69636         9.42711         3.00362
O         18.21319        10.62921        -0.93834
H         18.09520         9.72746        -1.30564
O         17.15617         5.34541        -1.11392
H         17.94414         4.80412        -1.33504
O         11.96193         8.72170         2.31459
H         11.90248         7.81642         2.70912
O          8.99854        36.56642         1.69693
H          8.56127        35.85645         2.22426
O         12.79433        36.42865        -2.81893
H         13.16730        35.67734        -3.33707
H          1.37359         2.52231        -0.96412
H         -0.78449         3.72798        -1.26358
H         -0.86691         6.16700        -1.47505
H         -0.84682         8.03235        -2.21724
H         -0.84889        10.44665        -2.21655
H         -0.95178        12.42649        -1.90829
H         -0.95657        14.79086        -1.36246
H         -0.87186        16.75659        -1.65133
H         -0.99452        19.08517        -0.97171
H         -1.07176        20.91245        -0.09695
H         -1.04931        23.33296         0.23279
H         -1.01624        25.11080         1.06198
H         -0.97741        27.47522         1.69785
H         -1.08343        29.46792         1.16102
H         -1.03226        31.80930         0.60147
H         -1.02811        33.77783         0.65768
H         -0.97836        36.22947         0.45124
H          0.26729        38.34390         0.32520
H          3.80205         2.50527        -0.88019
H          2.41806        39.57676         0.21574
H          6.18710         2.50196        -0.63614
H          4.85817        39.56346         0.02794
H          8.60676         2.45940        -0.05832
H          7.27864        39.53773        -0.45403
H         11.00445         2.44466         0.36766
H          9.77776        39.60761        -0.58071
H         13.37125         2.39430         0.96119
H         12.31173        39.58027        -0.56924
H         15.81927         2.36492         1.27876
H         14.74700        39.48560        -0.71077
H         18.30016         2.28546         1.25106
H         17.15531        39.47450        -0.82830
H         20.45881         3.48160         1.13701
H         21.74831         5.58071         1.13770
H         21.86152         8.03399         1.01175
H         21.88641         9.90157         0.18713
H         21.96617        12.32532         0.24383
H         21.92778        14.28801         0.05812
H         21.83040        16.65401        -0.38747
H         21.70770        18.49283        -1.01599
H         21.64140        20.87662        -1.38563
H         21.72068        22.79256        -1.37109
H         21.71210        25.20133        -1.65862
H         21.73263        27.09978        -1.81828
H         21.79048        29.52208        -1.75093
H         21.83027        31.46710        -1.12569
H         21.80860        33.91083        -1.15287
H         21.79642        35.78455        -0.99476
H         21.76690        38.23798        -0.83893
H         19.60571        39.48592        -0.82326
