         324
 CSIRO Nanostructure Databank - Neutral Graphene Oxide Data Set
C         30.51120        57.14381        -0.92380
C         30.53874        58.54291        -1.16749
C         29.37175        59.26254        -1.53977
C         30.63823        61.33232        -1.67972
C         29.43215        60.62918        -1.79359
C         32.83485        52.88628         0.03057
C         32.79723        54.31720         0.00840
C         31.67435        55.01871        -0.37784
C         32.88531        57.18963        -0.35919
C         31.66149        56.45795        -0.51717
C         32.94500        58.55538        -0.67662
C         31.77857        59.25116        -1.06064
C         33.05444        61.38244        -1.16643
C         31.82812        60.67036        -1.31041
C         35.08309        48.53308         0.33933
C         35.18513        49.95860         0.19113
C         34.03107        50.73654         0.26908
C         35.29532        52.87962         0.24650
C         34.01786        52.16721         0.18270
C         35.29558        54.32779         0.39328
C         33.98576        55.06555         0.56600
C         35.23856        57.20460         0.31483
C         34.08272        56.50727         0.09919
C         35.26563        58.71447         0.28284
C         34.29983        59.22233        -0.80497
C         35.45562        61.41334        -0.60035
C         34.24614        60.74016        -0.79572
C         37.73747        44.27130         0.05022
C         37.63491        45.68987         0.08413
C         36.33626        46.27567         0.24364
C         37.96305        48.71526        -0.05766
C         36.06865        47.62287        -0.07971
C         37.75655        50.00856         0.35410
C         36.49821        50.69991        -0.14697
C         37.76476        52.87513         0.29792
C         36.46820        52.16463         0.24624
C         37.76648        54.37568         0.37663
C         36.46355        55.03409         0.50917
C         37.75043        57.23926         0.85056
C         36.45013        56.49469         0.75560
C         37.80443        58.66242         0.42694
C         36.63496        59.33625         0.11060
C         37.90979        61.38556        -0.31311
C         36.67343        60.72490        -0.27898
C         40.27507        40.00127        -0.27685
C         40.19510        41.42336        -0.16438
C         39.00077        42.14140        -0.13837
C         40.18539        44.33332        -0.03300
C         38.95542        43.57271        -0.02770
C         40.12677        45.72304         0.09019
C         38.88752        46.44568         0.15764
C         40.14546        48.43670         1.14797
C         38.97933        47.84015         0.38710
C         40.17600        49.96952         1.11459
C         38.88033        50.67640         1.03917
C         40.23300        52.87059         0.95890
C         38.93389        52.19319         0.92864
C         40.31509        54.34871         0.61377
C         39.00271        55.09809         0.74612
C         40.28014        57.19261         0.87363
C         39.01407        56.46035         0.82249
C         40.29288        58.62233         0.61164
C         39.08439        59.31319         0.33678
C         40.36826        61.36997        -0.10871
C         39.12329        60.70735        -0.02545
C         42.77793        35.74812        -0.04307
C         42.74022        37.10151        -0.31282
C         41.41231        37.78488        -0.55888
C         42.73567        39.94132        -0.52302
C         41.47006        39.29001        -0.41201
C         42.74804        41.40415        -0.28681
C         41.46921        42.15843        -0.03801
C         42.65365        44.32213        -0.13808
C         41.45884        43.64296        -0.12848
C         42.70138        45.78950        -0.14796
C         41.36491        46.52948         0.00575
C         42.66978        48.46831         0.95877
C         41.41210        47.84100         0.61313
C         42.63820        49.94644         1.35117
C         41.35023        50.68621         1.21914
C         42.67856        52.86666         1.16514
C         41.38953        52.15053         1.16998
C         42.71930        54.30528         1.23143
C         41.40633        55.02895         1.44727
C         42.69871        57.25049         1.31480
C         41.44543        56.51108         1.13393
C         42.76489        58.64408         0.85183
C         41.54620        59.30640         0.54362
C         42.83138        61.34849         0.04634
C         41.57735        60.69831         0.16111
C         45.26654        32.96073         0.40590
C         44.03237        33.67021         0.35543
C         45.25759        35.79607         0.10059
C         44.01361        35.06497         0.18394
C         45.21976        37.11144        -0.34778
C         43.97005        37.81549        -0.47981
C         45.25157        39.97187        -0.80279
C         43.95316        39.23542        -0.65649
C         45.26606        41.46612        -0.73201
C         43.95514        42.18935        -0.68086
C         45.21660        44.32250        -0.08517
C         43.94488        43.65029        -0.40884
C         45.18176        45.71971         0.19842
C         43.95465        46.45099         0.23489
C         45.17070        48.51990         0.67424
C         43.95323        47.81362         0.60376
C         45.22278        49.95550         1.01549
C         43.92802        50.70824         1.28626
C         45.10875        52.88417         0.74972
C         43.86957        52.15992         1.05323
C         45.16682        54.31444         1.03327
C         43.93868        54.99448         1.25973
C         45.25457        57.16585         1.10397
C         43.99450        56.46502         1.43397
C         45.25417        58.56203         0.81221
C         44.02265        59.27897         0.68308
C         45.28301        61.31726         0.04773
C         44.04150        60.66698         0.26070
C         46.44981        33.63193         0.51582
C         47.84775        35.68588         0.71790
C         46.44233        35.11835         0.78130
C         48.31212        36.79923         0.19244
C         46.38627        37.82536        -0.97613
C         47.67425        39.91462        -0.16334
C         46.54468        39.25845        -0.54248
C         47.65230        41.37877         0.11028
C         46.45853        42.17736        -0.23794
C         47.68499        44.24817         0.34931
C         46.41842        43.55448        -0.00349
C         47.67597        45.74070         0.38559
C         46.39359        46.45809         0.30019
C         47.62335        48.60989         0.00224
C         46.38417        47.84773         0.39215
C         47.67683        50.02022         0.51244
C         46.46433        50.68560         0.71155
C         47.67906        52.88500         0.85542
C         46.44037        52.14284         0.60289
C         47.66021        54.24653         1.00237
C         46.41024        54.98931         1.02851
C         47.74712        57.04482         0.68194
C         46.43384        56.41287         1.04313
C         47.72043        58.54335         0.58872
C         46.51948        59.22296         0.52911
C         47.72312        61.32124        -0.05571
C         46.51117        60.64450         0.17303
C         49.02125        37.79829        -0.31122
C         50.21390        39.99540        -0.05986
C         48.96888        39.19391         0.27167
C         50.24719        41.37312        -0.00349
C         48.98396        42.10529         0.26334
C         50.14462        44.26194        -0.10283
C         48.98539        43.56987         0.09523
C         50.11587        45.74029        -0.40876
C         48.92107        46.48019         0.12358
C         50.13773        48.59963         0.04506
C         48.91704        47.85446         0.13486
C         50.12264        50.01871         0.22210
C         48.90368        50.70530         0.52349
C         50.17474        52.88013         0.74760
C         48.94397        52.08716         1.13453
C         50.18798        54.26246         0.92930
C         48.93689        54.89716         1.51050
C         50.22968        57.19940         1.38530
C         48.94088        56.43052         1.44357
C         50.10856        58.74793         1.28131
C         49.05485        59.18054         0.22959
C         50.11064        61.46922         0.34405
C         48.98611        60.70051         0.16674
C         51.43326        42.15224        -0.19727
C         52.61350        44.32639        -0.29855
C         51.42695        43.56621        -0.20730
C         52.63593        45.76300        -0.23952
C         51.40313        46.47575        -0.16458
C         52.60483        48.62023        -0.09061
C         51.38246        47.88524        -0.05667
C         52.57259        50.04985        -0.08832
C         51.33680        50.74907         0.13460
C         52.48900        52.93097        -0.01298
C         51.33612        52.18820         0.29111
C         52.50730        54.34031         0.13949
C         51.36557        55.03214         0.66762
C         52.53722        57.16778         0.39142
C         51.43002        56.45943         0.87811
C         52.62566        58.64599         0.57582
C         51.44330        59.43178         1.05284
C         52.62338        61.55269         0.28321
C         51.40101        60.95458         0.92614
C         53.84385        46.50147        -0.25138
C         55.04525        48.68737        -0.32057
C         53.85146        47.92367        -0.21938
C         55.01370        50.09976        -0.40234
C         53.76052        50.77549        -0.31026
C         54.92276        53.00136        -0.64353
C         53.63883        52.22667        -0.68586
C         54.86884        54.37884        -0.69009
C         53.66957        55.07045        -0.27797
C         54.78162        57.22403        -0.70076
C         53.65404        56.47819        -0.19389
C         54.56878        58.62270        -0.88731
C         53.67002        59.38444        -0.15863
C         55.00594        61.55824        -0.22887
C         53.75241        60.84169        -0.10308
C         56.20793        50.87950        -0.52714
C         57.37380        53.04833        -0.53513
C         56.18790        52.28625        -0.61862
C         57.37474        54.45694        -0.74730
C         56.08662        55.12404        -1.20045
C         57.26622        57.34006        -0.98282
C         56.04970        56.62708        -0.96856
C         57.38815        58.73362        -0.67024
C         56.37507        59.63758        -0.91614
C         57.51447        61.55485         0.01957
C         56.26874        60.96468        -0.36278
C         58.54101        55.17960        -0.77196
C         59.81016        57.31520        -0.91080
C         58.54791        56.58801        -1.29297
C         59.86030        58.56511        -0.36308
C         58.58933        59.25353         0.08424
C         59.94019        61.34506         0.34241
C         58.67748        60.77543         0.08838
C         61.10215        59.23915        -0.09692
C         61.11932        60.57114         0.28097
O         43.32288        56.97553         2.63780
O         48.22128        41.68874         1.44982
O         37.03464        48.16823        -0.96198
O         46.86273        37.38843        -2.01473
O         42.31456        41.70576         1.09262
O         49.57571        56.88588         2.67618
O         34.77900        58.86763        -2.07675
O         42.05046        46.41902        -1.30267
O         42.63171        48.94510         2.40274
O         36.94773        56.96886         2.07345
O         49.39661        58.67652        -1.04237
O         55.37847        59.27207        -1.83598
O         47.70852        44.93734         1.64828
O         38.03363        53.65584        -0.91428
O         44.80636        50.32272         2.39679
O         52.46891        59.03800         2.01425
O         45.67015        52.54810        -0.59053
O         38.54703        51.53170         2.17853
O         43.84209        43.09316        -1.81451
O         45.38650        40.77100        -2.03597
O         36.57278        50.72907        -1.60573
H         36.60973        49.78854        -1.90175
O         47.98640        56.55673        -0.67724
H         48.56259        57.26066        -1.12636
O         47.49846        48.76225        -1.46681
H         46.76168        49.38576        -1.64580
O         49.00129        51.85568         2.57502
H         48.99468        52.75023         3.00592
O         48.89723        39.07413         1.71044
H         48.75039        39.98389         2.06789
O         51.44503        61.48471         2.29403
H         52.08581        60.92126         2.78426
O         40.71170        54.44465        -0.77846
H         39.93531        54.15032        -1.31306
O         58.54540        56.46327        -2.77267
H         58.58275        57.37090        -3.14420
O         48.93132        54.53305         2.93098
H         49.40978        55.25962         3.40350
O         39.99571        48.05510         2.55341
H         40.82285        48.34914         3.00654
O         46.10353        35.24394         2.21443
H         45.24840        34.78376         2.35644
O         34.76126        59.16285         1.57291
H         35.33398        58.75942         2.26212
O         49.60517        59.27056         2.52270
H         50.23740        59.03423         3.23346
O         49.91641        45.78242        -1.88191
H         49.83743        46.72586        -2.14333
O         58.38760        58.87589         1.48536
H         59.15450        59.22039         1.99034
O         41.05467        54.89585         2.84704
H         41.70181        55.42779         3.36116
O         56.06316        54.96910        -2.65397
H         56.89820        55.37700        -2.99220
O         53.28201        52.19693        -2.12739
H         52.40743        51.75815        -2.20238
O         40.96607        37.46208        -1.89468
H         41.63986        37.78738        -2.52709
O         33.73836        55.13759         2.01012
H         34.48036        55.63637         2.41505
H         29.56882        56.59339        -1.06489
H         28.41300        58.72967        -1.61972
H         30.65958        62.41506        -1.87165
H         28.51874        61.16893        -2.08074
H         31.89279        52.33656        -0.12482
H         30.77177        54.46525        -0.68273
H         33.06358        62.46446        -1.37827
H         34.19266        48.14452         0.85906
H         33.05805        50.22552         0.35128
H         35.48456        62.51332        -0.67609
H         36.80319        43.68853         0.04476
H         35.53148        45.64122         0.64670
H         37.95018        62.44605        -0.60491
H         39.33299        39.43125        -0.27257
H         38.04681        41.59551        -0.20313
H         40.39485        62.42968        -0.40315
H         41.83985        35.17651         0.02023
H         40.63975        37.36676         0.13565
H         42.85861        62.40615        -0.25601
H         45.25231        31.86337         0.33647
H         43.08534        33.11246         0.33227
H         45.28144        62.37795        -0.24661
H         47.40103        33.08259         0.56743
H         48.54699        35.11674         1.36240
H         47.69101        62.39398        -0.30603
H         49.47893        37.67977        -1.30946
H         51.15057        39.44447        -0.23600
H         50.02163        62.56655         0.28138
H         52.38989        41.62245        -0.32267
H         53.57499        43.79508        -0.36958
H         52.68750        62.65147         0.32807
H         54.80177        45.96458        -0.32239
H         56.01197        48.16715        -0.39228
H         54.97513        62.61463         0.08334
H         57.17928        50.36307        -0.50476
H         58.33269        52.53936        -0.35221
H         57.56333        62.63108         0.24478
H         59.50156        54.69491        -0.53883
H         60.75399        56.80305        -1.15935
H         60.01700        62.42911         0.51139
H         62.04590        58.69965        -0.26290
H         62.08435        61.06603         0.46067
