         260
 CSIRO Nanostructure Databank - Neutral Graphene Oxide Data Set
C         30.57681        31.62308         1.56709
C         30.65425        32.84338         1.74984
C         30.58812        36.11140         1.79438
C         30.76037        37.31304         2.07083
C         30.70334        40.47060         1.94221
C         30.53796        41.69660         1.85899
C         32.72355        28.91117         0.15960
C         31.69907        29.38686         0.67812
C         32.88746        31.56841         0.73112
C         31.69865        30.73262         1.26693
C         32.86236        33.08565         0.70841
C         31.63496        33.80984         1.23628
C         33.05175        35.95428         1.54300
C         31.74539        35.19557         1.76233
C         33.04279        37.44931         1.37084
C         31.82484        38.20496         1.71756
C         32.79815        40.32676         0.84778
C         31.74633        39.56485         1.59870
C         32.73338        41.82451         0.68407
C         31.69706        42.63137         1.62283
C         32.34239        44.32952         0.18790
C         31.41327        43.94754         0.91238
C         35.36964        27.39555        -0.55301
C         35.14863        28.81220        -0.53954
C         33.97260        29.45409        -0.26696
C         35.22496        31.71765        -0.39022
C         33.93353        30.94567        -0.15829
C         35.32076        33.12038         0.15145
C         34.19975        33.76457         0.65661
C         35.51973        35.96080         0.74922
C         34.28045        35.17262         1.12158
C         35.40187        37.44842         0.60283
C         34.14674        38.13133         0.88875
C         35.22617        40.37259         0.04953
C         34.11182        39.62370         0.71201
C         35.01631        41.73429        -0.66875
C         33.85627        42.58790        -0.04834
C         34.02133        44.87308        -1.48273
C         33.53812        43.86815        -0.45840
C         35.01684        45.85389        -0.99351
C         37.62510        27.33403        -0.02157
C         36.37289        26.66977        -0.47970
C         37.68478        28.71777        -0.65622
C         36.42518        29.53958        -0.61524
C         37.75279        31.64273        -0.83838
C         36.46556        30.91866        -0.62260
C         37.68542        33.17858        -0.86887
C         36.56091        33.84906        -0.09070
C         37.79329        36.01026        -0.33322
C         36.58249        35.22694         0.02302
C         37.77801        37.47311        -0.08690
C         36.48747        38.15937         0.17969
C         37.70043        40.34741        -0.09929
C         36.42565        39.54740        -0.42158
C         37.69385        41.69902        -0.75622
C         36.39682        42.53667        -0.61328
C         37.77484        44.50192        -1.40837
C         36.59297        43.60835        -1.69603
C         37.60251        45.78926        -1.01096
C         36.20801        46.13014        -0.93179
C         40.07103        24.61315         0.73713
C         39.03208        25.28640         0.76683
C         40.19059        27.50526         0.74856
C         38.80288        26.71826         0.63532
C         40.31624        28.48382        -0.45891
C         39.04521        29.35386        -0.73927
C         40.30265        31.61299        -0.33587
C         39.08039        30.87743        -0.79016
C         40.25914        32.98826        -0.20914
C         39.07566        33.81052        -0.62696
C         40.27110        35.87797         0.45610
C         39.10655        35.28354        -0.34554
C         40.30715        37.43034         0.48558
C         39.02867        38.18654         0.33118
C         40.32849        40.41492         0.07295
C         39.00698        39.68090         0.19708
C         40.27888        41.80451        -0.48401
C         39.00645        42.37181        -1.05750
C         40.26076        44.58046        -0.97652
C         39.11555        43.82639        -1.60188
C         40.05752        45.93055        -0.48742
C         38.79500        46.71149        -0.94145
C         39.82173        48.59511         0.12141
C         38.75490        47.93926        -0.03934
C         42.69343        24.56340         0.86581
C         41.39921        25.16872         0.79915
C         42.73850        27.28951         0.77041
C         41.43886        26.56988         0.74531
C         42.74461        28.74328         0.37461
C         41.62567        29.37298        -0.47065
C         42.74903        31.54451        -0.03706
C         41.54524        30.87368        -0.14074
C         42.80391        32.99961         0.14700
C         41.48705        33.74454         0.13874
C         42.76135        35.91603        -0.42659
C         41.52065        35.20661        -0.02062
C         42.85723        37.38056         0.01958
C         41.62467        38.17550         0.35235
C         42.74669        40.26561        -0.46644
C         41.62334        39.64510        -0.00005
C         42.77239        41.68384        -1.01422
C         41.54191        42.51464        -0.78705
C         42.76701        44.71128        -0.75243
C         41.50789        43.90292        -0.82995
C         42.66086        46.14968        -0.31628
C         41.29627        46.74587        -0.01824
C         42.45757        48.79357         0.26072
C         41.17615        48.22894         0.13503
C         43.78526        25.18648         0.82818
C         45.23645        27.15060         0.17500
C         44.05820        26.55923         0.67756
C         45.21972        28.55603        -0.34238
C         44.08540        29.38819         0.14565
C         45.27861        31.58041        -0.47054
C         44.07022        30.85939        -0.01075
C         45.27157        32.95091        -0.46710
C         44.06616        33.74120        -0.16222
C         45.29090        35.90507        -0.23033
C         44.03790        35.11537        -0.17285
C         45.30489        37.38532        -0.50085
C         44.03918        38.10095        -0.46548
C         45.11434        40.23188         0.35418
C         44.09386        39.58706        -0.64062
C         45.21074        41.76104         0.10719
C         44.08038        42.45004        -0.65345
C         45.33232        44.73542        -0.19071
C         44.07844        43.96023        -0.62961
C         45.16064        46.13842         0.40193
C         43.86343        46.85307         0.31206
C         43.62190        48.31572         0.24106
C         47.51177        27.23322        -0.41797
C         46.48018        26.54714        -0.10031
C         47.79711        28.55767        -0.63692
C         46.49906        29.28683        -0.80026
C         47.83811        31.44429        -0.56286
C         46.51577        30.81965        -1.00151
C         47.77350        32.90742        -0.23554
C         46.57672        33.54552        -0.94439
C         47.72367        35.91091         0.28156
C         46.45406        35.44884         0.56142
C         47.89763        37.29908        -0.36596
C         46.57799        38.06743        -0.06547
C         47.77558        40.29338         0.18227
C         46.49816        39.51304         0.29672
C         47.77016        41.72695         0.56720
C         46.51227        42.49934         0.30467
C         47.89753        44.65368         0.56684
C         46.62974        43.98452         0.00442
C         47.54319        46.04498         0.87867
C         46.50902        46.67007         0.64125
C         50.32498        28.92138        -1.11730
C         49.09080        29.23966        -0.29480
C         50.26371        31.60568        -0.37947
C         49.00557        30.77717        -0.41759
C         50.23984        32.87408         0.46291
C         48.91632        33.61502         0.43856
C         50.19528        35.85566         0.93287
C         48.91264        35.12126         0.72410
C         50.20536        37.35388         0.70612
C         49.10102        38.03596         0.24916
C         50.25554        40.26992         0.76699
C         49.09457        39.53735         0.17572
C         50.11168        41.50992         1.33470
C         48.91203        42.31106         1.05121
C         50.08654        44.20670         2.01012
C         49.00671        43.82460         1.09561
C         51.37701        29.57766        -1.10716
C         52.70760        31.74702        -0.31766
C         51.58264        31.01143        -0.91487
C         52.64178        32.88092         0.17213
C         51.52480        33.61686         0.78795
C         52.55367        35.91494         1.18201
C         51.50046        35.08290         0.94167
C         52.48732        37.20733         1.18832
C         51.47715        38.07189         0.90977
C         52.53871        40.28126         1.48787
C         51.60702        39.53123         0.59564
C         52.45498        41.37750         2.04054
C         51.17390        42.04909         2.41846
C         51.06694        43.53810         2.34205
O         42.53345        37.72735         1.41537
O         50.76717        31.83872        -1.75358
O         38.37843        28.80389        -1.91644
O         40.29793        41.56347         0.97849
O         42.83518        45.81617        -1.71765
O         40.45724        46.03868         0.92518
O         32.16475        40.94216        -0.32727
O         33.57403        44.90470        -2.60155
O         38.15467        40.26524         1.25873
O         44.45670        43.20761        -1.82949
O         44.26904        46.22170         1.54799
O         47.88140        32.95189         1.24089
O         46.31719        44.59944        -1.26307
O         32.85853        30.99394         2.08230
O         39.46820        34.79161        -1.66459
O         46.55344        38.48270         1.33534
O         42.08723        29.41069        -1.79252
O         49.05805        44.38865        -0.24681
O         35.34691        35.42175         2.09744
O         37.76251        36.96712        -1.47873
O         48.52668        40.07770        -1.05894
O         44.41716        30.21779         1.30235
O         37.30467        33.35716        -2.32351
O         42.62051        28.40196         1.76075
O         38.31545        41.56726        -2.07330
O         32.63152        35.43032         2.86445
O         35.98652        43.62915        -2.74752
O         38.50440        31.28831        -2.05182
O         45.58154        36.41227        -1.57439
O         50.84120        32.79995         1.78697
O         49.35176        35.44388         2.08915
O         42.16629        33.38635         1.41947
O         31.85951        33.68003        -0.19041
O         37.77159        27.35491         1.42031
O         39.53636        37.84792         1.65554
O         46.70509        34.20091        -1.95830
O         45.50754        42.39227         1.39735
O         35.14196        40.37868         1.48993
O         45.56593        28.67651        -1.75045
O         34.17590        31.62168        -1.41703
O         32.35283        42.88284         2.82621
H         31.77353        43.40202         3.42069
O         40.02965        35.42287         1.80883
H         40.68811        35.83986         2.40523
O         40.12464        28.27491         1.93440
H         40.04651        27.68712         2.71379
O         46.12120        34.62845         1.57235
H         46.91083        34.38178         2.10599
O         49.35754        28.92302         1.06585
H         50.22270        29.29882         1.33151
O         50.71607        41.58322         3.65678
H         51.35176        41.83380         4.35786
O         36.91382        34.70746        -2.58343
H         37.76655        35.13822        -2.85211
O         48.15509        37.21882        -1.76624
H         47.39818        36.74889        -2.18973
O         46.49762        31.02697        -2.43232
H         45.88505        30.36190        -2.82385
O         39.06339        47.14737        -2.26868
H         38.24056        47.48951        -2.67619
O         40.47823        27.58661        -1.55678
H         41.00906        28.10789        -2.22647
O         51.97186        39.65496        -0.77206
H         52.06961        40.60367        -0.99605
O         36.33444        39.38253        -1.84379
H         36.77204        38.54207        -2.10906
O         42.75904        41.49458        -2.46939
H         43.19551        42.29407        -2.85869
O         34.67122        41.41863        -2.00419
H         34.74498        42.22215        -2.57212
O         42.70528        36.07702        -1.89252
H         42.73695        35.19328        -2.31817
O         44.66956        39.85025        -1.94064
H         43.94913        40.09749        -2.57085
O         44.55306        40.03960         1.64355
H         45.01526        40.62691         2.28122
O         36.47757        43.18943         0.66214
H         36.44772        42.51176         1.37347
O         39.38008        43.72582        -3.01239
H         38.77931        43.03964        -3.38246
