         280
 CSIRO Nanostructure Databank - Neutral Graphene Oxide Data Set
C         30.43744        31.83373        -1.33975
C         30.49103        32.98405        -0.82663
C         30.23811        35.98741         0.35513
C         30.24345        37.19050         0.71233
C         30.22894        40.14898         1.91046
C         30.27524        41.42243         1.99281
C         32.94586        29.12098        -1.42514
C         31.82306        29.64958        -1.62371
C         32.83218        31.69163        -0.67728
C         31.48159        30.86579        -0.79518
C         32.79808        33.10376        -0.10132
C         31.47224        33.85988        -0.35265
C         32.58955        35.98720         0.12732
C         31.38053        35.19256         0.05899
C         32.56191        37.37277         0.49703
C         31.36705        38.04546         0.84259
C         32.63252        40.09512         1.66174
C         31.33136        39.53727         1.03091
C         32.67932        41.57964         1.97121
C         31.34099        42.31428         2.03897
C         32.59913        44.35492         1.53372
C         31.57870        43.68562         1.81886
C         35.38961        27.46011        -0.98424
C         35.24489        28.78869        -0.26892
C         34.15385        29.60414        -0.89167
C         35.26062        31.78862        -0.24648
C         34.04907        31.03464        -0.68163
C         35.29004        33.26610        -0.47057
C         34.01949        33.97360        -0.44505
C         34.90589        36.31124        -0.55697
C         33.81279        35.37862        -0.35357
C         35.08395        37.48580         0.13774
C         33.79691        38.24536         0.32262
C         35.17049        40.19728         1.13234
C         33.90285        39.41682         1.27208
C         35.16576        41.55475         1.15178
C         33.93192        42.31711         1.53034
C         35.02456        44.39618         0.39050
C         33.83441        43.74296         1.00947
C         35.25026        45.84387         0.30343
C         37.80649        27.50594        -1.34496
C         36.49345        26.98484        -1.31304
C         37.78714        28.88658        -0.93302
C         36.58337        29.52207        -0.52436
C         37.84540        31.69110        -0.37090
C         36.58450        30.95613        -0.20732
C         37.79924        33.08004        -0.33517
C         36.59265        33.82726        -0.49152
C         37.82299        35.99409        -0.19968
C         36.82237        35.24377        -0.72529
C         37.70975        37.47712         0.00697
C         36.43037        37.93348         0.74672
C         37.75659        40.16428         1.38507
C         36.45168        39.42552         1.16010
C         37.76869        41.68923         1.28437
C         36.43112        42.35874         1.10745
C         37.68436        44.45615         0.48465
C         36.39452        43.63926         0.26443
C         37.70532        45.96546         0.34033
C         36.32612        46.41198         0.10427
C         40.04158        24.60570        -0.60070
C         39.07756        25.31849        -0.90576
C         40.36670        27.37892        -0.98103
C         39.03896        26.71021        -1.35332
C         40.42391        28.91502        -1.05482
C         39.05741        29.59816        -0.84678
C         40.35930        31.72120        -0.73954
C         39.06543        30.95608        -0.59874
C         40.27722        33.04989         0.00763
C         39.07534        33.89028        -0.44690
C         40.26486        36.02021         0.25053
C         38.98337        35.22319         0.35897
C         40.27299        37.39000         0.27560
C         38.99351        38.17325         0.30425
C         40.32958        40.20775         1.03283
C         39.07010        39.35272         1.25592
C         40.31326        41.71340         0.97867
C         39.00765        42.40483         0.79759
C         40.14737        44.36768        -0.37574
C         38.96322        43.68348         0.32714
C         40.23195        45.88723        -0.03042
C         38.88055        46.61976        -0.32986
C         40.24825        48.63895        -0.32108
C         39.19794        48.05788        -0.04077
C         42.58498        24.49789        -0.01834
C         41.21453        25.09900         0.18681
C         42.56134        27.28108         0.22559
C         41.42591        26.63968        -0.21160
C         42.72742        28.73412         0.11543
C         41.41989        29.50712        -0.03242
C         42.77698        31.62724        -0.09445
C         41.58553        30.97793        -0.28496
C         42.85371        33.07718         0.00693
C         41.57443        33.81591        -0.12586
C         42.76215        35.96164         0.62824
C         41.54212        35.27706         0.08409
C         42.79722        37.36950         0.00230
C         41.51800        38.13852         0.30108
C         42.76371        40.27470         0.40867
C         41.55753        39.49787         0.57487
C         42.80922        41.65712         0.44206
C         41.61189        42.51427         0.79225
C         42.65288        44.43082        -0.35033
C         41.50752        43.74737        -0.07416
C         42.60851        45.83624        -0.80013
C         41.43362        46.54358        -0.73774
C         42.72859        48.56875        -1.13592
C         41.32458        48.08596        -1.19302
C         43.59583        25.09012         0.37480
C         45.04409        27.20346         1.00757
C         43.76460        26.50171         0.72327
C         45.13319        28.76631         0.98606
C         43.91129        29.39178         0.32432
C         45.27322        31.61154         0.39017
C         44.05931        30.81910        -0.19469
C         45.31883        33.04999        -0.21173
C         44.03663        33.77536         0.15363
C         45.24988        35.88599         0.60025
C         44.06899        35.20734         0.40280
C         45.25777        37.35801         0.77733
C         44.00361        38.11737         0.50390
C         45.23623        40.26589         0.70568
C         44.05774        39.55656         0.06039
C         45.26583        41.68974         0.17297
C         44.04513        42.35685         0.17484
C         45.09894        44.26881        -1.03943
C         44.02752        43.86079         0.00701
C         45.07963        45.76784        -1.20913
C         43.90115        46.45847        -1.15215
C         43.73876        47.88059        -1.35249
C         47.50690        27.19590         0.79869
C         46.39975        26.66509         0.91033
C         47.77052        28.64309         0.93856
C         46.48716        29.35255         0.50307
C         47.89250        31.54201         0.35899
C         46.57923        30.82359         0.19826
C         47.87679        33.04170         0.33723
C         46.60804        33.80696         0.17192
C         47.80203        35.97195         0.90586
C         46.51992        35.13165         0.93428
C         47.79050        37.33791         0.86420
C         46.54480        38.10145         0.70072
C         47.75049        40.29627         0.59784
C         46.50734        39.46115         0.55457
C         47.67128        41.52970        -0.28068
C         46.49515        42.27446        -0.26563
C         47.54782        43.93933        -1.76428
C         46.52575        43.75390        -0.66336
C         47.21448        44.44234        -2.98553
C         46.89946        44.92790        -4.11143
C         50.39962        28.77851         0.76133
C         49.05985        29.38125         0.91304
C         50.29574        31.64758         1.00724
C         49.04953        30.87395         0.64841
C         50.34584        33.04686         0.39303
C         49.09232        33.75077         0.88968
C         50.37901        35.96640         1.03429
C         49.08135        35.23295         1.12264
C         50.36980        37.44679         1.19357
C         49.01387        38.16821         1.26861
C         50.11905        40.01429        -0.08932
C         49.00157        39.46936         0.48168
C         49.99228        41.18353        -0.94588
C         48.83341        41.94144        -1.00748
C         49.89987        43.96132        -0.59838
C         48.93257        43.35986        -1.59733
C         51.40127        29.44943         0.39883
C         52.70226        31.75330         0.22503
C         51.84353        30.75923         0.37792
C         52.76200        33.05556         0.40680
C         51.64013        33.83392         0.60605
C         52.66570        36.16795         0.65398
C         51.56212        35.25871         0.77958
C         52.73972        37.39620         0.47405
C         51.64671        38.28718         0.90477
C         52.14210        40.82662         0.72159
C         51.47289        39.67209         0.39635
C         52.32095        42.08098         0.77610
C         52.10314        43.43867         0.77858
C         50.94447        43.88393         0.03707
O         37.00620        39.64061         2.51220
O         49.05487        34.22637         2.23745
O         33.32513        39.22893         2.59557
O         35.82288        31.32906         1.00502
O         33.63047        42.08126         2.94440
O         48.35351        29.08467         2.17476
O         40.08296        26.89675        -2.35312
O         41.68136        34.75011        -1.29138
O         46.55050        29.81516        -0.86242
O         40.46486        41.00763         2.26636
O         40.44451        31.98298        -2.22303
O         37.11762        42.40007         2.38655
O         38.31478        38.38318        -0.97471
O         34.01090        43.79304        -0.44514
O         51.24920        37.99514         2.26258
O         47.54627        33.73464        -0.93440
O         37.79812        45.35332         1.63764
O         44.18992        26.76800         2.09206
O         44.37750        37.85855         1.88331
O         35.85583        35.89036        -1.47743
O         40.93663        29.27191        -2.35229
H         40.58463        28.61300        -2.99683
O         32.83151        32.92071         1.34252
H         32.22631        32.17920         1.56803
O         50.17409        32.90423        -1.03254
H         51.02308        32.59849        -1.41761
O         45.08414        31.82275         1.79552
H         45.03318        30.94773         2.25809
O         48.77773        38.47240         2.67803
H         49.67038        38.50983         3.10260
O         44.23331        30.60960        -1.61690
H         44.51045        31.47539        -2.01457
O         44.39128        44.43822         1.29224
H         43.71891        44.11159         1.93967
O         31.10401        30.49856         0.51000
H         30.28111        29.96844         0.47089
O         31.22461        40.13265        -0.26270
H         30.45058        39.74931        -0.72524
O         44.64789        43.65023        -2.25672
H         45.17998        43.98914        -3.01376
O         44.27962        39.60180        -1.36250
H         43.68099        38.94449        -1.79046
O         52.92722        44.31997         1.36828
H         52.60083        45.23308         1.24858
O         39.91587        44.20174        -1.78822
H         39.20430        44.83309        -2.06220
O         33.61382        38.91678        -0.97983
H         33.62772        38.23551        -1.68612
O         36.49442        37.15986         1.98364
H         36.65179        37.79671         2.72326
O         39.16350        34.23195        -1.83941
H         40.11090        34.39577        -2.07066
O         49.55481        43.39590        -2.86510
H         50.42660        42.94854        -2.81063
O         42.96305        37.23566        -1.43129
H         42.41298        36.48395        -1.75412
O         39.29429        38.70765         2.52933
H         39.49737        39.41454         3.18228
O         40.90609        25.08463         1.55215
H         40.74254        24.16468         1.84355
O         41.81585        31.98296        -2.65255
H         41.99517        31.01528        -2.79636
O         46.36548        34.72447         2.32108
H         46.31548        35.52813         2.88021
O         40.82209        48.11793        -2.52388
H         41.55288        47.92041        -3.14629
O         40.13599        32.67184         1.39641
H         39.72482        33.42392         1.89190
O         51.06614        41.52835        -1.70235
H         51.79990        40.89657        -1.54559
O         42.52616        36.03536         2.04502
H         43.20334        36.64631         2.43198
O         36.48841        43.20439        -1.11028
H         35.57489        43.12574        -1.47007
O         47.78359        40.84394         1.97176
H         48.07824        40.09014         2.55277
O         45.06290        29.16702         2.38152
H         44.48387        28.51490         2.84641
O         38.74276        34.92561         1.76419
H         38.24134        35.67698         2.15740
O         38.60063        46.54958        -1.73236
H         39.22804        47.15402        -2.20796
O         50.49415        31.66212         2.36403
H         50.16832        30.83243         2.77192
O         40.44178        46.01489         1.37955
H         41.21303        45.46608         1.63870
O         45.00633        40.39255         2.12902
H         45.84985        40.73107         2.51306
O         45.29946        32.98295        -1.65446
H         46.23183        33.09374        -1.96795
O         41.92946        43.09181         2.11097
H         41.71064        42.39433         2.77520
O         46.24282        46.40955        -1.42041
H         46.05905        47.36549        -1.54494
O         40.78127        29.38874         1.27604
H         40.76970        30.27237         1.70617
O         47.00445        44.47935         0.48704
H         46.26985        44.49343         1.14925
O         35.00517        28.63122         1.11711
H         35.79807        28.25021         1.54636
