         429
 CSIRO Nanostructure Databank - Neutral Graphene Oxide Data Set
C          1.38917         2.06434        -0.67168
C          1.37132         3.45919        -0.69626
C          2.56901         1.38900        -0.38121
C          2.54778         4.19561        -0.45777
C          1.39176         6.39983        -0.65650
C          1.35966         7.81758        -0.53178
C          2.48268         5.64683        -0.27934
C          2.38567         8.55190         0.02727
C          1.25485        10.75031        -0.39425
C          1.25129        12.14089        -0.36211
C          2.41034        10.01716        -0.05601
C          2.41131        12.86887        -0.04803
C          1.21238        15.11863        -0.32544
C          1.22559        16.45682        -0.33590
C          2.36495        14.35267         0.29237
C          2.40557        17.18886         0.25573
C          2.45178        18.64392        -0.11698
C          3.79289         2.07775        -0.21126
C          3.78678         3.51383        -0.28775
C          4.93131         1.27194         0.19910
C          4.97563         4.32605        -0.03718
C          3.57647         6.31505         0.45827
C          3.49537         7.82548         0.68177
C          4.90480         5.65956         0.43652
C          4.76541         8.56939         1.00053
C          3.58939        10.74331         0.23414
C          3.60073        12.15118         0.20136
C          4.80730        10.03806         0.72787
C          4.82641        12.91440         0.67053
C          3.68162        15.07485         0.00612
C          3.68665        16.45654        -0.07589
C          4.89510        14.33045         0.15349
C          4.97525        17.22586         0.07421
C          3.60122        19.31742        -0.32209
C          4.92807        18.71084        -0.30416
C          6.23951         1.63218        -0.07090
C          6.26334         3.78888        -0.21862
C          7.47864         1.20606         0.46344
C          7.42795         4.31729         0.35834
C          6.09642         6.34453         0.77063
C          6.06063         7.78765         1.14537
C          7.33646         5.65596         0.81531
C          7.37689         8.56448         1.07304
C          6.11131        10.67609         0.30450
C          6.12608        12.16752         0.47315
C          7.38137        10.00321         0.76409
C          7.33280        12.82047         0.29642
C          6.13662        14.98498         0.03520
C          6.15659        16.37316        -0.32704
C          7.36977        14.25137         0.08800
C          7.36518        16.89215        -0.75447
C          6.01236        19.55423        -0.30856
C          7.37757        19.06977        -0.50296
C          8.64665         2.02195         0.44239
C          8.66004         3.50940         0.45811
C          9.87609         1.34825         0.52689
C          9.83834         4.15514         0.73953
C          8.59023         6.38164         1.12433
C          8.63323         7.82600         0.88048
C          9.89705         5.61778         0.98023
C          9.83729         8.48341         0.64558
C          8.58698        10.66020         0.58974
C          8.59413        12.09496         0.31483
C          9.84283         9.92506         0.58228
C          9.79865        12.78822         0.23028
C          8.60259        14.91082        -0.08971
C          8.61459        16.30127        -0.42545
C          9.84767        14.20800         0.03113
C          9.79886        17.08382        -0.33945
C          8.58288        19.33127         0.07043
C          9.79553        18.53034        -0.19498
C         11.13357         2.00599         0.59837
C         11.14525         3.45963         1.02463
C         12.31150         1.32350         0.38439
C         12.31631         4.23148         0.43351
C         11.09205         6.35325         0.52727
C         11.07752         7.75020         0.43355
C         12.27344         5.58516         0.21094
C         12.27482         8.48363         0.06005
C         11.05455        10.59213         0.37568
C         11.06478        12.07006         0.46980
C         12.24391         9.88682         0.04774
C         12.35936        12.81725         0.41405
C         11.06471        14.91732        -0.11541
C         11.04473        16.36733        -0.27011
C         12.32739        14.23876        -0.01832
C         12.25143        17.07433        -0.33830
C         11.01831        19.18512        -0.10739
C         12.26467        18.50261        -0.25849
C         13.60938         1.99960         0.44462
C         13.60377         3.51446         0.38623
C         14.86002         1.29541         0.12364
C         14.79981         4.22390        -0.11458
C         13.43840         6.28546        -0.45249
C         13.50046         7.77299        -0.22253
C         14.77087         5.57823        -0.30339
C         14.69623         8.43566        -0.49170
C         13.37830        10.70315        -0.54741
C         13.64437        11.98178         0.30049
C         14.67142         9.89579        -0.75829
C         14.82124        12.77387        -0.23670
C         13.52912        14.90509        -0.25877
C         13.51395        16.34645        -0.69943
C         14.77822        14.21911        -0.27246
C         14.76949        17.09734        -0.34586
C         13.48669        19.20473        -0.24812
C         14.74536        18.52662        -0.25184
C         16.02924         1.98624        -0.12157
C         15.98847         3.42595        -0.58556
C         17.28043         1.32779        -0.11100
C         17.28364         4.18489        -0.44528
C         16.00528         6.32077        -0.52878
C         15.96454         7.73831        -0.59397
C         17.25132         5.61361        -0.53242
C         17.20982         8.47136        -0.64766
C         15.97887        10.63772        -0.82654
C         15.96029        12.10769        -0.61611
C         17.24746         9.89414        -0.67827
C         17.21212        12.85153        -0.81781
C         15.98899        14.95672        -0.38677
C         15.98003        16.40089        -0.30296
C         17.22734        14.28351        -0.48987
C         17.22012        17.10318        -0.19282
C         15.96287        19.22299        -0.13276
C         17.20649        18.54024        -0.11032
C         18.49464         2.03148        -0.24236
C         18.49025         3.48062        -0.39594
C         19.71447         1.33883        -0.14090
C         19.74992         4.17447        -0.47682
C         18.48395         6.34312        -0.61730
C         18.44576         7.74902        -0.66554
C         19.75335         5.62733        -0.60942
C         19.69958         8.50843        -0.83532
C         18.47960        10.60978        -0.59789
C         18.51724        12.08536        -0.72486
C         19.70865         9.95275        -0.57072
C         19.72972        12.80671        -0.29447
C         18.45358        14.96072        -0.32763
C         18.44453        16.39076        -0.16291
C         19.68902        14.23059        -0.21546
C         19.67105        17.09780         0.00565
C         18.43265        19.23216        -0.00886
C         19.66177        18.53961         0.05835
C         20.95455         2.01486        -0.20297
C         20.94197         3.44493        -0.41410
C         22.17037         1.30877        -0.10073
C         22.23721         4.11485        -0.56709
C         20.95738         6.32207        -0.62701
C         21.01225         7.77276        -0.85782
C         22.25188         5.62298        -0.62795
C         22.32918         8.54040        -0.66787
C         20.94890        10.63616        -0.25008
C         20.90936        12.08595        -0.01924
C         22.13247         9.93540        -0.09276
C         22.10424        12.79605         0.32581
C         20.88653        14.93847         0.09172
C         20.88586        16.38458         0.15031
C         22.06457        14.21372         0.37248
C         22.10207        17.10211         0.34053
C         20.89103        19.23236         0.17682
C         22.10226        18.53713         0.31058
C         23.44567         1.95347        -0.11838
C         23.47105         3.40980        -0.18164
C         24.63293         1.23968        -0.07097
C         24.63970         4.11952         0.02056
C         23.43884         6.34833        -0.11681
C         23.39583         7.71681         0.03295
C         24.64445         5.57817         0.14437
C         24.54981         8.43905         0.58635
C         23.28438        10.58956         0.64086
C         23.34931        12.08728         0.50666
C         24.61600         9.90494         0.46621
C         24.57168        12.73772         0.67622
C         23.25725        14.95515         0.80132
C         23.31941        16.40986         0.58516
C         24.56539        14.19530         0.93565
C         24.54050        17.09583         0.69746
C         23.34950        19.21878         0.46580
C         24.53221        18.53038         0.63375
C         25.94822         1.92624        -0.30650
C         25.89706         3.39807         0.06040
C         27.15357         1.26394         0.32769
C         27.07700         4.05875         0.23059
C         25.82622         6.23573         0.43786
C         25.86122         7.67142         0.74466
C         27.07975         5.48402         0.57076
C         27.13520         8.42691         0.63809
C         25.83169        10.58260         0.59457
C         25.83394        12.02972         0.66907
C         27.10538         9.88099         0.66536
C         27.06345        12.72832         0.73372
C         25.80291        14.97082         0.81138
C         25.79926        16.36209         0.77037
C         27.05801        14.20539         0.88352
C         27.03764        17.09933         0.55414
C         25.81161        19.30017         0.85350
C         27.03864        18.51876         0.45279
C         28.37021         1.92366         0.31307
C         28.35972         3.37047        -0.14941
C         29.62452         1.29165         0.50129
C         29.61736         4.14012         0.17046
C         28.37450         6.25539         0.55741
C         28.31556         7.72828         0.46192
C         29.62792         5.54241         0.22606
C         29.61388         8.40919         0.60476
C         28.30960        10.61635         0.72898
C         28.31115        12.04553         0.70548
C         29.59928         9.88555         0.86368
C         29.58608        12.77265         0.57315
C         28.32729        14.96270         0.61216
C         28.24810        16.40151         0.29129
C         29.56402        14.21321         0.32227
C         29.38565        17.07581        -0.16750
C         28.19271        19.19707         0.08720
C         29.38660        18.49815        -0.24951
C         30.84722         1.99376         0.30905
C         30.83598         3.42968         0.12768
C         32.08730         1.32988         0.30153
C         32.05223         4.13841        -0.11466
C         30.83931         6.26890         0.02901
C         30.85562         7.72484         0.13803
C         32.01925         5.56140        -0.26212
C         31.98426         8.45089        -0.14124
C         30.93537        10.63095         0.80445
C         30.78468        12.09048         0.45499
C         31.96681         9.96552        -0.16191
C         32.06079        12.79298         0.23621
C         30.67188        14.92122        -0.06611
C         30.55814        16.29074        -0.70424
C         31.99190        14.30047        -0.01329
C         31.85517        17.07506        -0.72832
C         30.58818        19.18735        -0.55514
C         31.81937        18.49761        -0.71304
C         33.28887         2.01630        -0.01914
C         33.25519         3.41678        -0.27935
C         34.53355         1.32704        -0.09991
C         34.45365         4.07167        -0.91193
C         33.20094         6.28139        -0.77420
C         33.17306         7.79153        -0.73098
C         34.50877         5.58024        -0.81212
C         34.45134         8.53581        -0.91719
C         33.39061        10.57350         0.03158
C         33.27093        12.06275        -0.21510
C         34.45896         9.90077        -0.83661
C         34.30783        12.76339        -0.78976
C         33.07707        14.94694        -0.77412
C         33.08250        16.40391        -0.89543
C         34.07372        14.12229        -1.22947
C         34.31438        17.14696        -0.90598
C         33.04482        19.21786        -0.83044
C         34.27765        18.57868        -0.88356
C         35.73682         2.01675        -0.35971
C         35.74587         3.38956        -0.57722
C         37.02375         1.24815        -0.52741
C         37.01037         4.07396        -1.03100
C         35.68298         6.26633        -0.99485
C         35.66200         7.73882        -1.27295
C         36.97845         5.59111        -0.91988
C         36.97953         8.46987        -1.38292
C         35.65287        10.70273        -1.18743
C         35.64294        12.16569        -0.93294
C         36.99520         9.97472        -1.32592
C         36.82442        12.87424        -0.87456
C         35.86174        15.15709        -1.23687
C         35.59041        16.45312        -0.73770
C         36.87375        14.32548        -0.72828
C         36.59203        16.97693         0.10079
C         35.51765        19.46886        -1.06000
C         36.69509        19.06334        -0.19640
C         38.23215         2.06586        -0.15661
C         38.22924         3.43697        -0.40845
C         39.39900         1.42817         0.33216
C         39.39687         4.20708        -0.16685
C         38.15795         6.29266        -0.76861
C         38.30987         7.74542        -1.20676
C         39.38824         5.62423        -0.37572
C         39.34132         8.52186        -0.41292
C         38.17228        10.67561        -0.79700
C         38.19818        12.19968        -0.84549
C         39.26365         9.96632        -0.29782
C         39.00320        12.75703         0.34356
C         37.96112        14.98401        -0.07839
C         37.86554        16.38098         0.19981
C         39.10907        14.26895         0.34074
C         39.03192        17.13990         0.56534
C         38.02333        19.30788        -0.34361
C         39.08503        18.55906         0.35082
C         40.55435         2.15384         0.54300
C         40.57651         3.55097         0.29399
C         41.75796         4.31992         0.47959
C         40.54231         6.37320        -0.06635
C         40.47942         7.83496        -0.00338
C         41.73327         5.68463         0.30591
C         41.58389         8.56688         0.55499
C         40.39422        10.68212         0.29608
C         40.33122        12.06324         0.53243
C         41.55092         9.92486         0.67114
C         41.38693        12.81004         1.13128
C         40.19482        14.95258         0.90209
C         40.20858        16.41419         0.92807
C         41.32408        14.17271         1.32822
C         41.37690        17.14174         1.24075
C         40.29282        19.22139         0.62175
C         41.40386        18.52745         1.11157
O          6.75346         8.13817         2.36133
O         34.97672        14.62408        -2.18566
O          6.38634         2.66466        -1.02928
O         17.98197        12.52027        -2.02709
O          2.29090        14.43998         1.72798
O         29.65551         8.94792         1.99962
O         32.37225        13.78073         1.29995
O         27.90158        14.67935         1.99792
O         25.02605         7.99710         1.90677
O         20.37746         8.15660        -2.12950
O         11.71799        12.59035         1.71709
O         36.33431        18.14975         0.82748
O         22.42861         4.83435        -1.85222
O          9.36351         5.97777         2.29914
O         36.30725        10.51145        -2.49457
O         28.32351         3.37827        -1.58134
O          4.65250         9.55515         2.08397
O         13.83616         2.82413         1.68392
O         36.27716         8.01157        -2.58076
O         32.86599         7.06182        -1.98232
O         23.76471        14.54876         2.12179
O          3.13275         6.88460         1.73565
O          7.39206        18.06758        -1.50225
O         27.79721         5.77387         1.83559
O         15.25775        10.21308        -2.07021
O         37.12795         0.94455        -1.94383
H         37.98315         0.48969        -2.09229
O          2.33234        17.11397         1.71829
H          2.22767        16.12527         1.93018
O         13.14622         6.16532        -1.89965
H         13.75271         6.77185        -2.37690
O         34.28227         3.81860        -2.35878
H         35.16676         3.97851        -2.77546
O          5.09497        17.30263         1.54838
H          4.16852        17.35835         1.91145
O         26.18615         1.82368        -1.74395
H         26.99772         2.40531        -1.92917
O         33.89157        10.33225         1.36344
H         33.21185        10.67322         2.00079
O         22.94793        10.35341         2.07021
H         23.70503        10.66885         2.61014
O          6.10897        10.44651        -1.16667
H          6.86947        10.93772        -1.54689
O         31.46356        10.64420         2.15428
H         31.00219         9.91901         2.64613
O         12.89658        11.14517        -1.83625
H         13.65695        11.06406        -2.46371
O         38.21253        12.42074         1.52999
H         38.68367        12.77288         2.31421
O         22.88090         8.78984        -1.99777
H         22.11313         8.79314        -2.61949
O         37.07845         3.79117        -2.48262
H         37.12801         2.80405        -2.56662
O         14.04023        11.54678         1.61798
H         13.27683        11.73749         2.21840
O         31.52197        10.33468        -1.49278
H         32.02502         9.80502        -2.14876
O         25.76940        20.57095         0.19892
H         25.66630        20.41847        -0.76245
O          4.63106        13.14533         2.10509
H          3.73351        13.60844         2.18375
O         35.91526        19.45562        -2.44025
H         36.05510        18.52574        -2.71445
O         15.77424         3.29294        -2.04314
H         15.81545         4.19280        -2.43250
O         11.31184         3.47784         2.47065
H         12.23765         3.17966         2.64735
O         13.51120        16.29386        -2.18384
H         13.49754        17.22139        -2.50400
O         38.88018        12.56970        -2.06797
H         38.38692        12.17032        -2.81611
O         38.88423         7.63223        -2.54459
H         38.13532         7.41987        -3.14876
O         30.23356        16.01038        -2.11944
H         30.23482        16.86836        -2.59507
H          0.45951         1.50207        -0.83491
H          0.41595         3.97850        -0.84814
H          2.56463         0.29241        -0.30403
H          0.54423         5.92274        -1.16779
H          0.50610         8.33526        -0.99016
H          0.31334        10.22924        -0.61390
H          0.30230        12.66128        -0.54917
H          0.33678        14.57926        -0.71557
H          0.38105        17.03637        -0.74000
H          1.49407        19.18493        -0.15829
H          4.72531         0.35848         0.77691
H          3.55866        20.39569        -0.54564
H          7.57210         0.18833         0.87319
H          5.83122        20.64258        -0.29101
H          9.87272         0.24981         0.44756
H          8.68572        20.16461         0.78092
H         12.28694         0.26441         0.08582
H         11.03583        20.27270         0.05722
H         14.89385         0.20517         0.27605
H         13.47462        20.30132        -0.16516
H         17.31270         0.24971         0.10821
H         15.95230        20.32037        -0.05615
H         19.70177         0.24759        -0.00380
H         18.43120        20.33115         0.04014
H         22.13567         0.21284        -0.00829
H         20.89197        20.33229         0.18555
H         24.60308         0.13896        -0.05478
H         23.36518        20.31864         0.45372
H         27.09446         0.21096         0.65106
H         25.89491        19.51838         1.95615
H         29.66147         0.19909         0.64166
H         28.18114        20.29640         0.05425
H         32.12418         0.24491         0.47945
H         30.58615        20.28708        -0.56960
H         34.55649         0.23915         0.05815
H         33.00373        20.31782        -0.84149
H         36.99994         0.28338         0.05133
H         35.22071        20.52513        -0.82686
H         39.37703         0.34596         0.52883
H         38.34804        20.08416        -1.05310
H         41.46567         1.65739         0.90550
H         42.68677         3.81585         0.78247
H         42.66274         6.24418         0.47035
H         42.48317         8.03578         0.89002
H         42.42406        10.43902         1.09304
H         42.31417        12.29688         1.42264
H         42.18615        14.67319         1.78925
H         42.29146        16.61911         1.55152
H         40.36432        20.30423         0.44602
H         42.32692        19.07651         1.34436
