         244
 CSIRO Nanostructure Databank - Neutral Graphene Oxide Data Set
C          1.78488         2.81513         2.27102
C          1.51150         3.89247         1.45330
C          2.98592         2.07737         2.19383
C          2.45401         4.28767         0.39930
C          1.17882         6.19523        -0.53373
C          1.13871         7.37245        -1.28462
C          2.41642         5.65624        -0.18942
C          2.32278         8.05755        -1.54516
C          1.13666        10.97176        -1.28459
C          1.16505        12.16379        -0.54795
C          2.32546        10.30129        -1.60614
C          2.37789        12.83831        -0.36837
C          1.42398        14.72038         0.93487
C          1.52445        16.00328         1.51438
C          2.46425        14.14923         0.20268
C          2.67971        16.77774         1.39292
C          2.85123        18.01683         2.13361
C          3.99722         2.41056         1.25747
C          3.74532         3.54273         0.32579
C          5.16661         1.69432         1.07760
C          4.94637         4.27128        -0.14836
C          3.62511         6.34870        -0.50237
C          3.59505         7.67214        -1.05034
C          4.88941         5.66739        -0.41039
C          4.81873         8.48477        -1.13301
C          3.60564        10.73656        -1.20113
C          3.59475        12.20197        -0.94281
C          4.81984         9.96386        -1.19616
C          4.89822        12.90848        -0.86139
C          3.65008        15.01453        -0.17163
C          3.79695        16.26842         0.64954
C          4.95387        14.26256        -0.29064
C          4.99223        16.96569         0.60378
C          3.95937        18.77673         1.98456
C          4.97987        18.43917         0.92382
C          6.06584         2.04683        -0.08595
C          6.13606         3.55449        -0.24084
C          7.40903         1.42265         0.09138
C          7.34849         4.23983        -0.52917
C          6.08136         6.36898        -0.73263
C          6.04457         7.80336        -0.97323
C          7.29754         5.63856        -0.76868
C          7.31895         8.51385        -0.94952
C          6.07007        10.67030        -1.07940
C          6.13108        12.11036        -0.95394
C          7.33269         9.96930        -0.99062
C          7.33298        12.81845        -0.92291
C          6.16035        14.90619        -0.19377
C          6.21308        16.31781         0.18667
C          7.38274        14.21487        -0.58173
C          7.41612        16.99288         0.23656
C          6.34437        19.01696         1.14136
C          7.47290        18.37572         0.69071
C          8.59795         2.11014        -0.11748
C          8.59820         3.51461        -0.47916
C          9.84412         1.41931         0.01333
C          9.83445         4.16813        -0.67270
C          8.53477         6.36383        -1.08422
C          8.52104         7.82834        -0.91642
C          9.84483         5.60941        -1.03957
C          9.78242         8.54148        -0.49009
C          8.56175        10.66130        -1.02485
C          8.56757        12.11593        -1.42455
C          9.82606         9.99398        -0.90762
C          9.85088        12.85676        -1.15248
C          8.59009        14.91947        -0.64316
C          8.72900        16.29227        -0.01492
C          9.79802        14.25225        -1.03525
C          9.68746        17.23179        -0.76657
C          8.75179        19.04852         0.67713
C          9.85139        18.52637         0.02761
C         11.06224         2.07275        -0.16763
C         11.04544         3.46631        -0.50017
C         12.32011         1.36658        -0.04717
C         12.33371         4.15662        -0.62888
C         11.06839         6.39876        -0.79414
C         11.07032         7.77566        -0.69939
C         12.33880         5.66081        -0.75431
C         12.30929         8.50275        -0.60866
C         11.03573        10.68043        -0.96796
C         11.08797        12.12885        -1.06517
C         12.34960         9.93579        -1.07057
C         12.30809        12.80986        -0.88228
C         11.02457        15.03926        -1.22684
C         11.02169        16.54706        -1.08119
C         12.33469        14.27391        -1.06002
C         12.32769        17.27485        -0.87390
C         11.09640        19.21764         0.07764
C         12.30991        18.64584        -0.29933
C         13.54525         2.00997        -0.07205
C         13.56748         3.46245        -0.18336
C         14.80087         1.30866         0.08727
C         14.72700         4.16304         0.01588
C         13.47628         6.38782        -0.11837
C         13.51205         7.85546        -0.30447
C         14.70025         5.62510         0.26313
C         14.74382         8.55561        -0.13991
C         13.56542        10.67695        -0.55673
C         13.55625        12.12379        -0.61182
C         14.73371         9.97967        -0.25850
C         14.74757        12.82876        -0.42678
C         13.50531        15.05503        -0.57242
C         13.58148        16.51329        -0.72827
C         14.75926        14.29030        -0.29385
C         14.78836        17.16851        -0.35710
C         13.54206        19.30087        -0.08338
C         14.77387        18.62207        -0.13902
C         16.00991         1.97273         0.10525
C         16.01469         3.44820        -0.01169
C         17.29623         1.32518         0.13429
C         17.28199         4.20143         0.22385
C         15.96615         6.40388         0.60444
C         15.98760         7.84600         0.11369
C         17.27169         5.66810         0.40512
C         17.18396         8.51747         0.23336
C         16.06538        10.70707        -0.23118
C         15.93720        12.15522         0.22123
C         17.15379         9.99233         0.56740
C         17.26698        12.87499         0.06102
C         16.05936        15.01016        -0.57963
C         15.98963        16.46594        -0.21001
C         17.29197        14.27866        -0.09669
C         17.21244        17.13022         0.36291
C         15.99223        19.30198         0.04148
C         17.22956        18.62186         0.11655
C         18.48905         2.01436         0.25496
C         18.52783         3.45425         0.49595
C         19.76906         1.33285         0.17157
C         19.66891         4.11895         0.84017
C         18.44535         6.33018         0.55607
C         18.51502         7.80532         0.21043
C         19.62942         5.60409         1.17663
C         19.61288         8.54793         0.98067
C         18.48047        10.71373         0.42545
C         18.47310        12.15305         0.22746
C         19.66100        10.02032         0.59625
C         19.72283        12.85297         0.18122
C         18.50466        14.98887        -0.06130
C         18.50654        16.43815        -0.01083
C         19.74334        14.27326         0.02704
C         19.68372        17.14305        -0.05750
C         18.44435        19.29408         0.12112
C         19.68961        18.59003         0.11849
C         20.93304         1.99098         0.34420
C         21.02484         3.43301         0.76863
C         21.81775         4.28163        -0.22416
C         21.01294         6.30246         0.96898
C         20.92483         7.81601         0.79572
C         21.78155         5.61938        -0.14374
C         22.07940         8.51616         0.61418
C         20.93965        10.69052         0.47073
C         20.95609        12.13862         0.28065
C         22.10356         9.94094         0.49856
C         22.15504        12.85734         0.18712
C         20.97839        14.97116        -0.07872
C         20.98149        16.44988        -0.42301
C         22.16417        14.24395        -0.01095
C         22.18675        17.20318         0.08464
C         20.89736        19.26069         0.27805
C         22.13011        18.53772         0.33800
O         12.59184         4.84044        -1.93051
O         11.67426        17.20093        -2.21289
O          2.69918         3.25674        -0.66518
O         16.82623         3.91345        -1.17326
O          9.20428         5.90907        -2.32889
O          2.20981         9.15813        -2.39899
O          4.11532        12.93366        -2.15453
O         11.83171        14.64998        -2.37532
O         13.93803        14.72829         0.84204
O         13.64777         5.94048         1.27647
O         12.58511         9.84568        -2.53206
H         13.38975         9.30215        -2.67246
O         19.33700         5.69137         2.61154
H         18.94020         6.58282         2.77377
O         18.96685         7.84291        -1.17968
H         18.26201         7.46060        -1.74403
O          5.46773         1.49646        -1.30792
H          4.57149         1.88802        -1.40304
O         16.52459        10.71553        -1.60737
H         15.91278        11.27546        -2.13153
O          4.48637        19.10061        -0.30909
H          3.77572        18.53150        -0.67781
O         15.60253        12.18685         1.63261
H         15.31976        13.09905         1.85903
O         15.96071         6.56141         2.06250
H         15.01332         6.64640         2.32973
O         21.07600        16.49855        -1.89542
H         21.12944        17.44492        -2.14794
O          3.34880        15.49100        -1.53312
H          3.46879        14.70585        -2.12683
O          9.36744        16.06394         1.28375
H          8.73884        15.56785         1.84910
O          8.44816        12.13285        -2.89849
H          7.57527        11.74651        -3.12705
O          9.66633         8.58845         0.99020
H          8.89414         9.15543         1.20370
O         16.81117        10.00031         1.97578
H         17.48464         9.44821         2.43883
O         21.71268         3.42347         2.03695
H         21.96680         4.36060         2.24113
O          9.06471        17.55048        -2.02220
H          9.78214        17.81495        -2.64158
O         21.77362         6.10372         2.19951
H         21.08481         6.03764         2.91188
O         19.23872         8.47737         2.40291
H         19.94132         8.93398         2.91408
O         16.15047        14.95056        -2.04995
H         16.98998        15.38189        -2.31785
O         17.09968        16.96383         1.82634
H         16.27124        17.40934         2.10547
H          1.05053         2.53298         3.03979
H          0.60739         4.49552         1.62057
H          3.14304         1.22670         2.87193
H          0.25375         5.64877        -0.30646
H          0.19443         7.75243        -1.69403
H          0.17944        10.53444        -1.59569
H          0.22054        12.61731        -0.21867
H          0.51373        14.13528         1.13259
H          0.68936        16.37672         2.12475
H          2.06079        18.31026         2.84151
H          5.40583         0.83563         1.72278
H          4.06862        19.72086         2.53911
H          7.44780         0.35174         0.34292
H          6.41382        20.05741         1.49446
H          9.82958         0.34743         0.25978
H          8.83060        20.02755         1.17555
H         12.28384         0.27773         0.10628
H         11.11468        20.20416         0.56825
H         14.77800         0.21128         0.16639
H         13.53379        20.36287         0.20620
H         17.32539         0.22954         0.03042
H         15.98521        20.40218         0.08652
H         19.76803         0.26010        -0.07546
H         18.45905        20.39432         0.08049
H         21.88651         1.44765         0.26127
H         22.39905         3.78425        -1.01619
H         22.34425         6.23985        -0.85837
H         23.03455         7.97525         0.54554
H         23.08246        10.42329         0.38015
H         23.12045        12.33772         0.25058
H         23.13448        14.74626        -0.12256
H         23.15916        16.69201         0.11561
H         20.90108        20.34847         0.43470
H         23.04576        19.08381         0.60898
