         404
 CSIRO Nanostructure Databank - Neutral Graphene Oxide Data Set
C          1.18836         3.60639        -0.31120
C          0.01006         4.35124        -0.08275
C          1.11535         6.37416        -1.02404
C         -0.03365         5.70474        -0.31597
C          1.14960         7.87511        -0.88372
C         -0.04232         8.59501        -1.05641
C          1.10853        10.73230        -0.87133
C         -0.07815         9.98669        -1.03572
C          1.11587        12.18616        -0.80404
C         -0.07891        12.95028        -0.77320
C          1.15393        15.04951        -0.45397
C         -0.06136        14.32293        -0.60367
C          1.17969        16.45726        -0.13507
C         -0.02355        17.21397        -0.03124
C          1.21103        19.19728         0.69295
C         -0.00858        18.52843         0.36196
C          1.22906        20.55430         1.12341
C         -0.02577        21.27115         1.29624
C          1.23867        23.31418         1.07166
C         -0.05737        22.61858         1.26218
C          1.29411        24.75795         0.68261
C          0.05997        25.48553         0.39632
C          1.26139        27.61466         0.39524
C          0.06240        26.84401         0.28425
C          1.23833        29.03514         0.14572
C          0.04063        29.71150        -0.22829
C          1.19231        31.86140        -0.30111
C          0.01644        31.07624        -0.41348
C          1.16063        33.29842        -0.46051
C         -0.06063        34.01793        -0.58486
C          1.12059        36.14639        -0.65190
C         -0.08229        35.39741        -0.66844
C          1.12247        37.57763        -0.69431
C          3.64459         3.58229        -0.56741
C          2.41954         4.28101        -0.55499
C          3.63761         6.42394        -0.66230
C          2.42519         5.70448        -0.70629
C          3.63788         7.86715        -0.60624
C          2.37211         8.57255        -0.71418
C          3.55205        10.71800        -0.59407
C          2.32734        10.00250        -0.72864
C          3.55918        12.13739        -0.72092
C          2.35633        12.88975        -0.74116
C          3.60095        15.04093        -0.38991
C          2.37999        14.33123        -0.57178
C          3.63946        16.40142        -0.00753
C          2.41501        17.12382         0.13011
C          3.67516        19.14841         0.89553
C          2.43912        18.49725         0.54612
C          3.67232        20.49942         1.39312
C          2.45954        21.20262         1.42152
C          3.69171        23.44699         1.79860
C          2.36203        22.66702         1.86865
C          3.71811        24.86511         1.27725
C          2.51976        25.53377         0.94227
C          3.70849        27.67113         0.83239
C          2.49686        26.93966         0.71250
C          3.64558        29.14940         0.77483
C          2.42054        29.80430         0.27399
C          3.65530        31.94959        -0.02851
C          2.42140        31.19977         0.00159
C          3.63574        33.33957        -0.32739
C          2.38108        34.02586        -0.46428
C          3.58080        36.18503        -0.58425
C          2.36090        35.45011        -0.57572
C          3.56405        37.61621        -0.60059
C          2.29531        38.28669        -0.65067
C          6.09130         3.55951        -0.75346
C          4.87242         4.27145        -0.67290
C          6.11778         6.41717        -0.65463
C          4.87873         5.71086        -0.64850
C          6.13370         7.83259        -0.43804
C          4.86248         8.56562        -0.38320
C          5.83589        10.83906         0.11858
C          4.74721        10.00171        -0.27478
C          6.02349        12.11355        -0.34234
C          4.84456        12.83618        -0.80413
C          6.10497        14.93465         0.01437
C          4.87329        14.34455        -0.59301
C          6.13793        16.38535         0.20108
C          4.89135        17.08086         0.26585
C          6.14011        18.91893         1.36276
C          4.88267        18.41489         0.72195
C          6.19083        20.39778         1.61059
C          4.91370        21.10160         2.07787
C          6.25303        23.43949         1.69305
C          4.97537        22.68367         1.97670
C          6.24717        24.82246         1.07317
C          4.93577        25.58020         1.19767
C          6.20114        27.74688         0.99860
C          4.93486        26.99268         1.00401
C          6.21404        29.19211         0.80320
C          4.93031        29.93682         0.76468
C          6.10594        32.02851         0.10039
C          4.90845        31.32375         0.23915
C          6.11805        33.39912        -0.32601
C          4.85726        34.06659        -0.45105
C          6.03711        36.22075        -0.66829
C          4.82533        35.48997        -0.58332
C          6.02472        37.65909        -0.56161
C          4.77442        38.32773        -0.53508
C          8.53809         3.51691        -0.98630
C          7.32494         4.23397        -0.87155
C          8.58252         6.33684        -1.02734
C          7.34360         5.67763        -0.84267
C          8.61758         7.76612        -0.92329
C          7.44724         8.44074        -0.46528
C          8.74441        10.55338        -0.52145
C          7.69391         9.76861        -0.05545
C          8.65743        12.02777        -0.59432
C          7.35840        12.76011        -0.49541
C          8.67386        14.90309        -0.04563
C          7.39605        14.17174        -0.01421
C          8.64196        16.29657         0.20158
C          7.39991        17.01097         0.41197
C          8.65435        19.08029         0.88629
C          7.43254        18.36553         0.82293
C          8.69477        20.44804         1.42320
C          7.41720        20.84411         2.01952
C          8.77667        23.54966         2.10396
C          7.41516        23.00221         2.23608
C          8.76393        25.02348         1.89682
C          7.43241        25.65700         1.55497
C          8.67803        27.80873         1.28647
C          7.39920        27.08591         1.16762
C          8.69070        29.29211         1.03864
C          7.38341        29.91308         0.74545
C          8.65683        32.08884         0.33730
C          7.35898        31.37547         0.53752
C          8.67808        33.47805        -0.30420
C          7.32750        34.11629        -0.57008
C          8.45129        36.32784        -1.02664
C          7.27143        35.52008        -0.81989
C          8.48410        37.69576        -0.60634
C          7.24654        38.35809        -0.40901
C         11.01213         3.48127        -1.12475
C          9.78410         4.17717        -1.10049
C         11.05212         6.29108        -1.31398
C          9.80941         5.61230        -1.16520
C         11.03872         7.74740        -1.52286
C          9.82924         8.48305        -1.13256
C         11.14073        10.63837        -1.08368
C          9.89475         9.88587        -1.00323
C         11.09696        12.08641        -0.84740
C          9.93455        12.77982        -0.55201
C         11.09563        14.97217        -0.30882
C          9.88978        14.22091        -0.32721
C         11.10201        16.34291         0.00112
C          9.86690        17.02891         0.24240
C         11.08877        19.19670         0.37535
C          9.84797        18.42289         0.50647
C         11.04922        20.68366         0.70315
C          9.82494        21.25885         1.32616
C         11.24734        23.46309         1.40139
C          9.98692        22.69838         1.76295
C         11.21386        24.91715         1.30876
C         10.02760        25.65104         1.48637
C         11.18716        27.77115         0.65656
C          9.92001        27.02403         0.99923
C         11.17707        29.24442         0.57846
C          9.94730        29.95978         0.60274
C         11.12990        31.92164        -0.24266
C          9.92263        31.30040         0.22064
C         11.05900        33.16008        -0.95567
C          9.62979        33.16501        -1.48526
C         10.90820        36.26577        -1.25883
C          9.64011        35.80501        -1.60417
C         10.95169        37.61475        -0.75935
C          9.75319        38.32749        -0.52542
C         13.45557         3.46464        -1.00716
C         12.24719         4.16859        -1.15756
C         13.54965         6.31842        -1.24712
C         12.28026         5.60722        -1.28485
C         13.59478         7.73622        -1.26419
C         12.36398         8.51102        -1.52695
C         13.66488        10.67572        -1.34465
C         12.33788         9.96127        -1.23597
C         13.62875        12.08033        -0.80013
C         12.37217        12.82761        -0.95193
C         13.62733        14.93255        -0.18804
C         12.36987        14.31155        -0.64783
C         13.60470        16.35397         0.11651
C         12.36049        17.05340         0.13194
C         13.56652        19.11174         0.71596
C         12.36494        18.44041         0.38415
C         13.40193        20.43429         1.27634
C         12.34341        21.30240         1.10673
C         13.72229        23.46123         1.04748
C         12.45005        22.75326         1.27215
C         13.70181        24.92371         0.97976
C         12.44520        25.64879         1.05566
C         13.64348        27.83414         0.80393
C         12.44970        27.05390         0.86519
C         13.64614        29.20965         0.48949
C         12.39604        29.91756         0.36834
C         13.56396        32.00773        -0.36605
C         12.37934        31.28735        -0.04512
C         13.47204        33.37043        -0.79533
C         12.19378        33.96953        -1.11765
C         13.43811        36.21351        -1.38900
C         12.14639        35.43917        -1.49775
C         13.40671        37.66297        -1.04073
C         12.20504        38.29139        -0.70169
C         15.84118         3.38796        -0.62389
C         14.70504         4.13208        -0.93976
C         16.00347         6.26901        -0.92170
C         14.76639         5.58121        -1.07186
C         16.01596         7.67702        -0.82755
C         14.80971         8.43250        -0.96869
C         16.00868        10.55297        -0.43884
C         14.83640         9.86065        -0.85319
C         16.01651        11.98166        -0.28427
C         14.79418        12.73981        -0.44198
C         16.05587        14.81420         0.19273
C         14.77713        14.16235        -0.12849
C         16.07420        16.30683         0.32088
C         14.81010        17.07494         0.29226
C         16.15121        19.17440         0.55031
C         14.84458        18.46581         0.57926
C         16.20666        20.63365         0.53780
C         15.25101        21.44207         1.13732
C         16.10039        23.54765         0.24599
C         14.96327        22.81767         0.83267
C         16.12544        25.04037         0.42268
C         14.88945        25.65998         0.89748
C         16.19970        27.88555         0.73493
C         14.91331        27.12935         1.01841
C         16.12544        29.29005         0.30444
C         14.87030        29.94535         0.23761
C         16.04180        32.00188        -0.40156
C         14.82702        31.31780        -0.17837
C         15.98703        33.38964        -0.92035
C         14.70085        34.11962        -0.95965
C         15.93062        36.27899        -1.14061
C         14.71357        35.49854        -1.14564
C         15.87135        37.72351        -1.15084
C         14.61579        38.37413        -1.01720
C         18.24557         3.28884         0.08594
C         17.16741         3.98445        -0.65622
C         18.61761         6.11677        -0.41625
C         17.27123         5.48563        -0.85489
C         18.54511         7.63488        -0.26269
C         17.27553         8.41328        -0.59301
C         18.41524        10.49546         0.19581
C         17.21950         9.83459        -0.21744
C         18.45775        11.92002         0.25336
C         17.24711        12.66409        -0.04143
C         18.64505        14.71346        -0.18969
C         17.29481        14.06113        -0.02909
C         18.61600        16.24180        -0.14270
C         17.32474        17.03429        -0.02915
C         18.61135        19.18242        -0.05792
C         17.32655        18.49156         0.21681
C         18.69941        20.63549         0.10784
C         17.40371        21.32865         0.00126
C         18.67532        23.49313         0.37358
C         17.39431        22.81656         0.01861
C         18.67979        25.00832         0.49877
C         17.41603        25.76792         0.41891
C         18.68136        27.86972         0.24683
C         17.44290        27.13560         0.43908
C         18.63264        29.28413         0.09546
C         17.34150        29.97263         0.05114
C         18.54048        32.14149        -0.15446
C         17.28518        31.35673        -0.23099
C         18.51862        33.61957        -0.45033
C         17.25629        34.19579        -0.99740
C         18.40366        36.40666        -1.06271
C         17.18733        35.66316        -1.05123
C         18.32941        37.83204        -1.18955
C         17.06395        38.46316        -1.19078
C         19.14222         3.97858         0.83225
C         20.04566         6.11859         1.64307
C         19.23380         5.41984         0.78075
C         20.20326         7.53293         1.56329
C         19.50205         8.29713         0.64717
C         20.66837        10.43657         1.15536
C         19.55293         9.74517         0.64399
C         20.70238        11.82534         1.19589
C         19.61214        12.59585         0.73744
C         20.66645        14.81606         1.25635
C         19.67186        14.05592         0.70250
C         20.76614        16.23731         1.03845
C         19.85310        16.93564         0.29399
C         21.13668        19.17968         0.34606
C         19.94687        18.38591         0.00917
C         21.12885        20.53778         0.28361
C         19.91230        21.31079         0.10517
C         21.10619        23.52779         0.13127
C         19.94756        22.77395         0.15387
C         21.10427        24.95188         0.16147
C         19.95082        25.71173         0.27762
C         21.09774        27.90642        -0.05642
C         19.91466        27.16236         0.15161
C         21.06241        29.28436        -0.16811
C         19.84605        30.00398        -0.10283
C         20.98125        32.21923        -0.37930
C         19.83891        31.45310        -0.21780
C         20.95559        33.62375        -0.61373
C         19.77669        34.33282        -0.73918
C         20.83866        36.55047        -1.16265
C         19.68904        35.76281        -1.01850
C         20.75594        37.94739        -1.30705
C         19.52963        38.58706        -1.30294
O         16.15438        15.49327         1.54827
O         11.66842         8.16373        -2.77696
O         17.33902        22.10852        -1.25939
O          7.89500        25.60524         2.94275
O          8.77562        28.73635         2.40824
O          4.33844        23.34070         3.12337
O          6.84376        10.29830         0.91261
O         18.63048        24.12241         1.69646
O          7.90682        12.49897        -1.82224
O         12.41360        13.82757        -2.04352
O          9.65157        23.03920         3.15647
O         15.73572        27.66328         2.12170
O         16.75560        33.51497        -2.19282
O          8.05012        32.09507         1.65937
O          6.61671        14.24827         1.23442
O          1.56409        23.62840        -0.30929
O         17.47589         4.58392        -1.97947
O         18.37778         8.22362        -1.58169
O          7.39798        21.83972         3.00183
O         19.33530        18.75149        -1.25453
O         10.97690        20.24235        -0.68622
O         18.43022        33.15172         0.93495
O         17.91523        16.70637        -1.33946
O         12.86397        35.84776        -2.70554
O          4.16451        29.78743         2.01050
O         10.34619        27.16038        -0.40451
O          5.04511        13.76828        -1.92158
O          9.28720        32.40544        -2.38626
O         14.44308        20.85219         2.11226
O         15.81829        24.40155        -0.90131
O          1.91173        22.67569         3.23812
H          2.71737        22.57649         3.79914
O         13.88884        10.84728        -2.79368
H         13.20134        11.46179        -3.13122
O         19.57410         5.88447        -1.47543
H         19.28553         6.42833        -2.24175
O          4.74060        20.79049         3.48752
H          5.46877        21.24695         3.96743
O          9.53058        34.86536        -2.58181
H          8.59368        34.74171        -2.83944
O          6.48635        24.69503        -0.36578
H          5.66749        24.36233        -0.79015
O         19.07801        14.37988        -1.54755
H         18.62981        15.01526        -2.15146
O          9.41195        34.32746         0.60993
H          9.01592        34.19369         1.49936
O          0.88288         6.13308        -2.47187
H          0.87476         5.15983        -2.59829
O          6.04294        18.36523         2.74074
H          5.37505        18.91508         3.21987
H          1.19231         2.51850        -0.15778
H         -0.87933         3.83431         0.30726
H         -0.95770         6.26727        -0.12162
H         -0.97855         8.04642        -1.22975
H         -1.04239        10.49474        -1.17138
H         -1.05194        12.44591        -0.84983
H         -1.02361        14.84968        -0.55153
H         -0.98841        16.74669        -0.26818
H         -0.96219        19.06854         0.42004
H         -0.95904        20.70528         1.41814
H         -1.00183        23.17355         1.34488
H         -0.86726        24.91980         0.23649
H         -0.88835        27.34755         0.06808
H         -0.89631        29.15447        -0.35309
H         -0.93785        31.55235        -0.67466
H         -1.01639        33.47703        -0.58652
H         -1.04350        35.92700        -0.73796
H          0.15856        38.10488        -0.74562
H          3.64537         2.48470        -0.49298
H          2.27940        39.38624        -0.66565
H          6.07266         2.45976        -0.75454
H          4.75413        39.42620        -0.47776
H          8.51217         2.41737        -0.96795
H          7.23242        39.43412        -0.18316
H         11.01412         2.38360        -1.05403
H          9.81030        39.39270        -0.25979
H         13.43243         2.37107        -0.89191
H         12.22057        39.35458        -0.41913
H         15.73736         2.32573        -0.35636
H         14.59515        39.46040        -0.84266
H         18.20477         2.19060         0.14063
H         17.01312        39.56148        -1.22899
H         19.84247         3.44113         1.49013
H         20.58043         5.57667         2.43721
H         20.86934         8.02375         2.28648
H         21.54590         9.86955         1.49589
H         21.60678        12.32535         1.56904
H         21.45786        14.34428         1.85667
H         21.64399        16.75386         1.45249
H         22.06158        18.65384         0.62444
H         22.06414        21.07863         0.48458
H         22.07947        23.03130         0.01342
H         22.07535        25.45069         0.03703
H         22.06619        27.39407        -0.12713
H         22.00734        29.82130        -0.32265
H         21.96877        31.73779        -0.37509
H         21.92171        34.12789        -0.75646
H         21.83173        36.08118        -1.14506
H         21.68091        38.53203        -1.40834
H         19.46930        39.68031        -1.40078
