         280
 CSIRO Nanostructure Databank - Neutral Graphene Oxide Data Set
C        -10.91481         0.59039         0.93391
C         -9.88173         1.39093         0.17014
C         -8.56805         0.58660         0.08046
C         -7.54631         1.28107        -0.87790
C         -6.17754         0.59109        -0.84086
C         -4.99085         1.36568        -1.37494
C         -3.70917         0.61182        -1.57612
C         -2.38645         1.37908        -1.56311
C         -1.21637         0.71069        -0.89484
C          0.10385         1.43447        -0.83718
C          1.25585         0.68210        -0.20116
C          2.53595         1.48924        -0.32074
C          3.83105         0.74776        -0.36819
C          5.00488         1.29572         0.38503
C          6.33671         0.64222         0.02664
C          7.52191         1.23450         0.77619
C          8.86265         0.56317         0.57455
C         10.10214         1.40731         0.26267
C         10.68293         0.90989        -1.05341
C         -9.63200         2.74672         0.85358
C         -8.43431         3.48962         0.26792
C         -7.50700         2.83391        -0.70416
C         -6.26232         3.61247        -1.08613
C         -4.94061         2.86599        -1.11600
C         -3.63646         3.61723        -1.24275
C         -2.35201         2.88656        -1.55804
C         -1.07699         3.65838        -1.24359
C          0.15651         2.92023        -0.79010
C          1.25313         3.56761         0.00605
C          2.40203         2.86563         0.26221
C          3.58396         3.44554         0.96772
C          4.89788         2.66737         0.97981
C          6.16791         3.43595         1.24800
C          7.48380         2.69434         1.08909
C          8.72731         3.48167         0.86079
C          9.84250         2.90385         0.35735
C         -8.19006         4.72411         0.77361
C         -7.19406         5.67535         0.22682
C         -6.20594         5.09416        -0.77602
C         -4.96025         5.81808        -1.20404
C         -3.66039         5.11981        -1.45111
C         -2.34705         5.97741        -1.41947
C         -1.08263         5.14077        -1.14939
C         -0.04153         5.78182        -0.25466
C          1.05605         4.98911         0.42966
C          2.18528         5.68284         1.27154
C          3.53366         4.91528         1.30589
C          4.82344         5.70185         1.43982
C          6.13033         4.92586         1.37550
C          7.36666         5.68545         0.84247
C          8.69011         4.95708         1.22639
C         -6.89546         6.89198         1.03896
C         -6.32678         8.02496         0.54373
C         -4.88471         7.27856        -0.98436
C         -3.72419         7.92633        -0.78366
C         -2.45713         7.17617        -0.42176
C         -1.19196         8.05247        -0.45354
C          0.12864         7.26746        -0.55673
C          1.19123         7.93253         0.28754
C          2.28194         7.20171         0.99082
C          3.60429         8.01584         1.01395
C          4.85031         7.19374         1.34539
C          6.18453         7.98982         1.23144
C          7.37071         7.07761         1.36231
C         -5.90716         9.13476         1.42039
C         -4.75178         9.85893         1.46300
C         -3.58164         9.75004         0.59015
C         -2.28166         9.94523         0.93244
C         -1.14618         9.47998         0.07399
C          0.20006        10.20929         0.29373
C          1.39593         9.36294        -0.09227
C          2.63091         9.74913        -0.45778
C          3.71576         8.68657        -0.39499
C          5.09828         9.21691        -0.68343
C          6.19839         8.85524        -0.01633
C        -10.86260        -0.75148         1.03175
C         -9.82545        -1.57193         0.41269
C         -8.87730        -0.85404        -0.55588
C         -7.54952        -1.68014        -0.94338
C         -6.19467        -0.90775        -0.88834
C         -5.01821        -1.67598        -1.51504
C         -3.67700        -0.90686        -1.41342
C         -2.42457        -1.58211        -0.95228
C         -1.25167        -0.73832        -0.53010
C          0.07085        -1.43390        -0.28246
C          1.23663        -0.70489        -0.92099
C          2.56238        -1.44561        -0.93320
C          3.85627        -0.73233        -0.69425
C          5.06691        -1.57229        -0.43660
C          6.28066        -0.88754         0.10207
C          7.59387        -1.61745         0.08590
C          8.91232        -0.89895         0.26729
C         10.21877        -1.45663        -0.35167
C         10.72683        -0.40302        -1.33624
C         -9.81702        -2.91635         0.55306
C         -8.76111        -3.77881        -0.10380
C         -7.43456        -2.95660        -0.07354
C         -6.22490        -3.81532        -0.41467
C         -4.97404        -3.17179        -0.95731
C         -3.63799        -3.89870        -0.68811
C         -2.47696        -2.95555        -0.33798
C         -1.20539        -3.59482         0.16225
C          0.11763        -2.88514         0.04293
C          1.39982        -3.65565        -0.20713
C          2.61230        -2.92414        -0.68108
C          3.83806        -3.59939        -1.29952
C          5.07210        -2.90762        -0.72912
C          6.34969        -3.65940        -0.86137
C          7.63597        -2.94427        -0.60242
C          8.90256        -3.71243        -0.53086
C         10.10223        -2.88966        -0.97522
C         -8.62317        -5.12868         0.56215
C         -7.44049        -5.81092         0.63225
C         -6.18072        -5.13768         0.30167
C         -4.99183        -5.74236         0.56860
C         -3.73292        -4.89653         0.55461
C         -2.45532        -5.76551         0.60634
C         -1.16069        -5.08450         0.36915
C          0.05452        -5.86501        -0.06327
C          1.34162        -5.15437        -0.32709
C          2.52172        -5.88912        -0.90531
C          3.81002        -5.13410        -1.09993
C          5.06515        -5.80091        -0.60578
C          6.36493        -5.12239        -0.75391
C          7.57022        -5.80664        -0.40666
C          8.84581        -5.06702        -0.45655
C         -7.38857        -7.19879         1.07487
C         -6.20455        -7.85943         1.27329
C         -4.93881        -7.10620         1.15288
C         -3.66729        -7.91046         1.02799
C         -2.54968        -7.23212         0.31886
C         -1.37286        -8.02092        -0.13401
C         -0.08072        -7.31618        -0.44454
C          1.20162        -8.09583        -0.43527
C          2.52405        -7.38687        -0.62092
C          3.80877        -8.07876        -0.33004
C          5.04758        -7.23328        -0.17523
C          6.34137        -8.03954        -0.11753
C          7.56294        -7.15871        -0.06403
C         -6.09827        -9.27807         1.56757
C         -4.93603        -9.98918         1.46863
C         -3.67822        -9.39147         1.04268
C         -2.56648       -10.10701         0.69371
C         -1.32964        -9.55219        -0.01187
C          0.00302       -10.00947         0.56880
C          1.18054        -9.39932         0.28942
C          2.46711        -9.81612         1.02080
C          3.81177        -9.47791         0.30219
C          4.99557        -9.63124         1.24240
C          6.16323        -8.99440         1.05636
O          6.61235         0.96593        -1.36225
H          5.86231         0.66812        -1.92284
O         -9.59862        -0.65113        -1.71364
O         -7.21968        -2.48932         1.27785
H         -6.91737        -3.23914         1.83401
O         -7.98845         1.03977        -2.21607
H         -8.79966         1.57856        -2.37120
O          3.45864         7.63908        -1.36980
H          2.60607         7.80988        -1.83582
O          0.28118        -1.87055         1.07860
O          3.49432         9.05193         1.98754
H          3.50640         8.63077         2.87297
O         -3.86833        -4.12990         1.70071
O          0.59155         2.14982        -1.98565
O          3.36268        -0.99738        -2.05430
O          4.89864        -6.22025         0.84626
O         -7.30540         3.37752        -2.05354
O          7.44742         1.66149         2.15148
O         -1.33578         9.19125        -1.33954
O         -4.50975         5.46214        -2.58370
O         -4.01951        -7.27291         2.28538
O          3.04755        -5.66951        -2.23892
O          6.21264         8.88626         2.35357
H          6.06109         8.34639         3.15939
O          3.28199        -8.09835        -1.67741
O          7.13480        -2.99410        -1.98473
O          3.38381         3.89566         2.33527
O          7.17632         5.66660        -0.59619
H          7.72073         6.37645        -0.99618
O         -1.38913       -10.08442        -1.35835
H         -1.95341        -9.47503        -1.88444
O          6.77890        -1.55485         1.29443
O          8.86254         5.07627         2.63863
H          8.12748         4.57904         3.07170
O          0.85434        -0.52257        -2.29168
H          1.63889        -0.17960        -2.78008
O          3.87784        -3.35856        -2.71184
H          3.47604        -4.13046        -3.17243
O          9.10128        -0.41979         1.62881
O          1.09194         0.55963         1.21157
H          0.17090         0.28279         1.42943
O         -5.28571        -1.75304        -2.91034
H         -4.45616        -2.00157        -3.37150
O         -2.42599        -7.60072        -1.09113
O         -3.82886         9.31721        -0.71904
O         -1.57701        -5.46995         1.71799
O         -4.55574         0.99151        -2.70264
O         -2.63940         6.61211         0.89567
H         -2.57161         7.32653         1.56350
O         -3.26262        -4.62001        -1.85893
H         -4.09258        -4.84303        -2.34354
O          4.77608         6.55742         2.64750
O         -5.84868        -0.21262         0.34513
O          6.26920         4.12466         2.56057
O          3.34917         1.50141        -1.53227
O          1.15950         7.83210         1.73936
O         -4.15117         3.21342         0.07571
O         -9.14977        -4.09875        -1.45674
H         -8.69559        -3.46025        -2.06855
O         -6.05951         8.06334        -0.84718
O         -2.71652        -1.50821        -2.36873
O         11.09795         1.13953         1.28808
H         10.63819         1.15939         2.15592
O          2.45962        -3.25564         0.72467
O          0.35530        10.53616         1.67979
H          0.83003         9.79090         2.11489
O         11.19381        -1.59112         0.69157
H         11.30330        -0.69949         1.11067
O          4.75741         1.45705         1.79909
O         -2.12852        -2.91106         1.06161
O          3.99723       -10.42679        -0.77663
H          3.49967       -10.06962        -1.55177
O          1.75414         5.58931         2.63651
H          0.86349         6.00111         2.69261
O         -5.83806        -3.98700        -1.81295
O         -0.63279         4.51856        -2.36684
O          9.97742        -2.79577        -2.40277
H          9.02685        -2.85304        -2.65015
O         -2.19789         2.12351        -2.78688
O         -1.58795         0.27384         0.47028
O         -8.08789         0.45742         1.40339
H         -7.25781        -0.08730         1.40407
O          0.44944        -7.85647        -1.68364
O          1.08244        -5.75007         0.98893
O          6.43930        -8.83690        -1.32500
H          5.76445        -9.55634        -1.27425
O          2.45797       -11.21006         1.29158
H          2.84709       -11.65493         0.50571
O         -9.48051         2.59695         2.26375
H         -8.85666         1.84931         2.41910
O          0.61782         7.34612        -1.91533
H         -0.13847         7.16645        -2.52509
O        -10.38243         1.69696        -1.14066
H        -10.49046         0.81384        -1.59715
O         -7.37900         5.82980        -1.21302
O         -0.22522         5.30803         1.10009
O         -7.71287        -2.06575        -2.30359
H         -8.40965        -1.45085        -2.66960
O         -2.16360         6.56484        -2.71338
H         -2.98605         6.41054        -3.23865
H         11.17982        -0.75000        -2.27749
H         11.10221         1.64489        -1.75778
H         10.72412         3.54108         0.17685
H          9.54584         5.48481         0.73474
H          8.04337         7.26999         2.21570
H          7.17445         9.27076        -0.31013
H          5.19160         9.88522        -1.55435
H          2.88093        10.79592        -0.68452
H          0.17069        11.16726        -0.28520
H         -2.00314        10.32414         1.92670
H         -4.63147        10.53408         2.32624
H         -6.59222         9.29747         2.27040
H         -7.12322         6.82793         2.11322
H         -8.85745         5.09846         1.56548
H        -10.54052         3.38138         0.68793
H        -11.73955         1.14547         1.40501
H        -11.64150        -1.28623         1.59859
H        -10.58108        -3.40025         1.18331
H         -9.55418        -5.64267         0.84868
H         -8.34290        -7.73523         1.18826
H         -7.02685        -9.81032         1.82429
H         -4.95297       -11.07425         1.64968
H         -2.62474       -11.20690         0.72984
H          0.02148       -10.92343         1.18301
H          2.46359        -9.27465         2.00749
H          4.88133       -10.34179         2.07554
H          7.00357        -9.16485         1.74655
H          8.51944        -7.64290         0.18655
H          9.77373        -5.65925        -0.45487
H         11.05529        -3.42967        -0.75112
