         228
 CSIRO Nanostructure Databank - Neutral Graphene Oxide Data Set
C        -11.07433         0.69795        -0.06806
C         -9.85386         1.40837         0.27117
C         -8.67260         0.71702         0.26420
C         -7.41837         1.37987         0.67488
C         -6.13015         0.65091         0.49240
C         -4.88316         1.41145         0.09506
C         -3.64238         0.69137         0.57562
C         -2.37829         1.36555         0.27632
C         -1.20152         0.67653         0.10680
C          0.02136         1.40371        -0.24430
C          1.10900         0.63586        -0.95558
C          2.43556         1.35922        -0.95975
C          3.61154         0.67307        -0.94994
C          4.89210         1.36225        -1.41187
C          6.16399         0.67555        -0.85960
C          7.22738         1.51856        -0.21995
C          8.39075         0.83810         0.43592
C          9.65680         1.59839         0.56162
C         10.83217         0.87061         0.98098
C         -9.93984         2.85948         0.74745
C         -8.65800         3.64205         0.49296
C         -7.40604         2.88517         0.77563
C         -6.09713         3.59618         0.70795
C         -4.83784         2.86391         0.49115
C         -3.65749         3.54551         0.42570
C         -2.42201         2.83306        -0.06380
C         -1.13076         3.47293         0.39132
C          0.09287         2.76981        -0.10074
C          1.25677         3.55811        -0.48344
C          2.35673         2.84445        -1.28835
C          3.70032         3.56088        -1.18747
C          4.87131         2.87554        -1.20194
C          6.17552         3.58785        -1.31314
C          7.41028         2.89402        -0.77417
C          8.56983         3.67508        -0.26737
C          9.68604         2.94744         0.30172
C         -8.60543         4.97102         0.24151
C         -7.30973         5.69147        -0.11929
C         -6.06484         5.03936         0.42448
C         -4.88004         5.70529         0.56517
C         -3.61501         4.98795         0.61890
C         -2.40937         5.68497         0.65154
C         -1.11625         4.93037         0.69945
C          0.19645         5.63391         0.47683
C          1.27815         4.91974        -0.28286
C          2.38244         5.73665        -0.87397
C          3.63870         5.04737        -1.34420
C          4.90467         5.89006        -1.61113
C          6.21460         5.09101        -1.43435
C          7.46528         5.79827        -0.96797
C          8.57304         5.03736        -0.36133
C         -7.27276         7.19435         0.03024
C         -6.12547         7.87628         0.29829
C         -4.90853         7.18066         0.86436
C         -3.58701         7.86863         0.63741
C         -2.41057         7.13260         0.68518
C         -1.12549         7.84311         0.86265
C          0.16502         7.12703         0.54711
C          1.22156         7.94114        -0.13401
C          2.40855         7.23843        -0.71018
C          3.72901         7.92085        -0.63063
C          4.90367         7.23581        -0.86775
C          6.17856         7.90655        -0.63145
C          7.37400         7.23271        -0.65023
C         -6.03520         9.32149         0.17817
C         -4.85351         9.98373         0.28312
C         -3.57952         9.31082         0.51180
C         -2.39679        10.01957         0.51735
C         -1.12201         9.35905         0.81603
C          0.16970        10.05482         0.59407
C          1.31036         9.37632         0.26093
C          2.59667        10.00226         0.15909
C          3.74327         9.31266        -0.19690
C          5.01438         9.99408        -0.12496
C          6.17563         9.31794        -0.30535
C        -11.08200        -0.64825        -0.31332
C         -9.86081        -1.41937        -0.37052
C         -8.58006        -0.62575        -0.44844
C         -7.34458        -1.44460        -0.14853
C         -6.13358        -0.79607         0.13469
C         -4.93291        -1.52327         0.28754
C         -3.66601        -0.81525         0.63883
C         -2.36965        -1.48443         0.41863
C         -1.20186        -0.78014         0.16803
C          0.03295        -1.48036        -0.15017
C          1.17261        -0.82037        -0.56363
C          2.42390        -1.52731        -0.72022
C          3.64199        -0.78866        -0.76980
C          4.85137        -1.48273        -0.55831
C          6.14363        -0.76935        -0.48212
C          7.28643        -1.39829         0.24796
C          8.42682        -0.64067         0.51147
C          9.64635        -1.28754         0.87570
C         10.82700        -0.48493         1.12566
C         -9.84761        -2.78759        -0.49585
C         -8.62519        -3.56306        -0.51284
C         -7.36202        -2.84752        -0.31845
C         -6.15319        -3.57229        -0.22716
C         -4.94319        -2.91652         0.08266
C         -3.70279        -3.68123         0.37755
C         -2.39852        -2.95376         0.56486
C         -1.07770        -3.70108         0.52044
C         -0.04383        -2.95192        -0.29354
C          1.18081        -3.69217        -0.73102
C          2.46183        -2.95066        -0.68575
C          3.67120        -3.62805        -0.45107
C          4.86110        -2.87386        -0.29918
C          6.03969        -3.50581         0.27210
C          7.27306        -2.81064         0.48774
C          8.52574        -3.48470         0.77939
C          9.68901        -2.68233         0.91911
C         -8.65343        -4.94475        -0.60594
C         -7.46388        -5.76137        -0.53285
C         -6.16460        -5.03108        -0.49384
C         -4.90273        -5.80231        -0.29163
C         -3.65309        -5.12851         0.11248
C         -2.48413        -5.85767         0.19383
C         -1.18735        -5.17342         0.16295
C         -0.06768        -5.86006        -0.20539
C          1.19561        -5.21489        -0.74845
C          2.41281        -5.77430        -0.04673
C          3.73458        -5.14899        -0.43738
C          4.85414        -5.70550         0.41494
C          5.85592        -4.80069         0.79431
C          7.69797        -5.80749         1.09676
C          8.71409        -4.91425         0.75242
C         -7.48525        -7.13636        -0.57104
C         -6.28930        -7.96277        -0.25416
C         -4.98237        -7.26659        -0.03170
C         -3.70253        -8.00696        -0.07818
C         -2.52741        -7.30801         0.05829
C         -1.26015        -8.04690         0.36609
C         -0.05325        -7.34144        -0.20344
C          1.23536        -8.04573         0.06825
C          2.41249        -7.18970         0.41034
C          3.69586        -7.87027         0.77241
C          4.95401        -7.08288         0.70341
C          6.20404        -7.78910         0.84855
C          7.47961        -7.18354         0.81870
C         -6.17923        -9.40585        -0.57085
C         -4.99897       -10.07846        -0.49823
C         -3.71497        -9.45128        -0.20794
C         -2.52280       -10.16792        -0.15391
C         -1.25385        -9.53008         0.07861
C         -0.04407       -10.19603         0.18447
C          1.22563        -9.50485         0.37927
C          2.42853       -10.13158         0.57577
C          3.69391        -9.37940         0.82669
C          5.02585        -9.99208         0.65272
C          6.15745        -9.24510         0.71154
O          0.15264        -3.28333        -1.71042
O         -3.73846         0.01511         1.85510
O          4.89485         1.20036        -2.84716
H          5.54838         0.49129        -3.05852
O          0.68959        -7.91857        -1.30596
O         -6.68935         0.80655         1.82613
O         -6.77316         3.33964         2.02045
O         -8.43266        -0.25995        -1.87020
H         -9.28400         0.13152        -2.16089
O          2.15091        -6.06684         1.34420
O         -2.47726         2.92119        -1.53070
H         -1.70288         2.43296        -1.88995
O         -1.09664         8.61458         2.10451
O          7.21588         5.51123        -2.40991
O          4.01440        -5.58126        -1.80015
H          3.16163        -5.54167        -2.30312
O         -7.19718         5.47291        -1.58161
H         -7.93831         5.95212        -2.00950
O         -1.08372         3.91933         1.77354
O          2.58328         5.40899        -2.29761
O          1.31306        -5.57043        -2.15261
H          0.66492        -5.01115        -2.63952
O         -5.79728        -7.64387         1.12637
O        -10.20303         2.87998         2.15962
H         -9.38299         2.61429         2.62725
O         -1.08813        -7.90773         1.81681
H         -1.88690        -8.27218         2.25339
O          6.67068        -0.30138        -1.81844
O          0.70157         6.34671         1.66284
O         -3.18476        -3.36381         1.73811
O          1.36694         7.81933        -1.58350
O          3.59583        -8.57245         2.06212
O          0.65600         0.59068        -2.35569
H          1.07514         1.35603        -2.82597
O         -5.31237        -5.40595        -1.65631
O         -5.09848         7.24986         2.32316
H         -4.31385         6.84151         2.74806
O          7.13767         2.93616        -2.20051
O          1.94063         2.90872        -2.68453
H          2.06446         3.85177        -2.97134
O         -4.86699         1.37178        -1.36071
H         -4.11943         1.94142        -1.67432
O         -0.54417        -3.65771         1.87063
H         -1.29343        -3.84044         2.48193
O          6.67286        -5.19668         1.85684
O          7.26937         1.43993         1.22927
O          4.83855         6.25552        -3.00425
H          5.76783         6.32664        -3.32626
H         11.74890        -1.00622         1.42265
H         11.75789         1.43944         1.15257
H         10.61604         3.50842         0.48087
H          9.41500         5.61006         0.05602
H          8.30306         7.77039        -0.40785
H          7.14510         9.82632        -0.20343
H          5.02053        11.06338         0.13080
H          2.68172        11.06208         0.44337
H          0.21503        11.13718         0.79138
H         -2.39688        11.09724         0.29525
H         -4.83101        11.07777         0.16745
H         -6.95687         9.88122        -0.04361
H         -8.15663         7.75457        -0.32154
H         -9.54515         5.53091         0.09828
H        -10.80731         3.35878         0.24488
H        -12.02385         1.25164        -0.03021
H        -12.03947        -1.17493        -0.44401
H        -10.80337        -3.33346        -0.54646
H         -9.62539        -5.45399        -0.69770
H         -8.44599        -7.65770        -0.70687
H         -7.09389        -9.94620        -0.85899
H         -4.99004       -11.15867        -0.71111
H         -2.54434       -11.25911        -0.30140
H         -0.02409       -11.29558         0.11525
H          2.46597       -11.22853         0.67056
H          5.09230       -11.07785         0.48744
H          7.12887        -9.75580         0.62067
H          8.34285        -7.81299         0.55119
H          9.70212        -5.29191         0.44744
H         10.64850        -3.17922         1.12691
