         762
 CSIRO Nanostructure Databank - Neutral Graphene Oxide Data Set
C         22.66266        24.50681        -0.95548
C         21.50747        25.22236        -1.08189
C         22.65237        27.25382        -1.87110
C         21.49234        26.57891        -1.54270
C         22.76500        28.71459        -1.81213
C         21.68311        29.49646        -1.35194
C         23.18805        31.29605        -0.71259
C         21.88234        30.77969        -0.86887
C         23.41224        32.51214         0.07602
C         22.42313        33.17371         0.76790
C         23.82880        35.09760         1.35365
C         22.64854        34.41952         1.45320
C         24.25176        36.31610         2.14359
C         23.17032        36.99104         2.93399
C         24.39719        39.09559         2.84813
C         23.34984        38.27000         3.36604
C         24.82848        40.26291         3.55982
C         24.46959        40.44090         4.92547
C         25.77572        42.47227         5.00109
C         24.98121        41.50581         5.64390
C         25.83483        44.71609         5.58029
C         25.09563        45.23546         6.64635
C         25.01282        47.33796         5.50151
C         24.63195        46.54771         6.58212
C         25.36303        22.96685        -1.71220
C         25.22427        24.37358        -1.19061
C         23.89700        25.00871        -1.56775
C         25.18177        27.14878        -2.28290
C         23.87798        26.45329        -2.02901
C         25.17035        28.61458        -2.56938
C         24.02730        29.35999        -1.96417
C         25.70402        31.02179        -0.98364
C         24.26726        30.58646        -1.30718
C         25.76856        32.54436        -0.87124
C         24.77352        33.08385         0.09164
C         25.97590        35.35443         0.04523
C         24.95911        34.46990         0.64007
C         26.00485        36.73616         0.36903
C         25.09345        37.26057         1.30662
C         26.06573        39.58331         0.99304
C         24.86743        38.74846         1.44643
C         26.33780        40.89035         1.67705
C         25.67265        41.24196         2.94904
C         26.91152        43.45953         2.94931
C         26.09535        42.41328         3.62809
C         26.88800        44.86384         3.26196
C         26.13953        45.44368         4.40518
C         26.34803        47.76786         3.44753
C         25.78588        46.82150         4.44686
C         26.47337        49.20061         3.82540
C         27.78515        23.08372        -1.34645
C         26.56887        22.36595        -1.71324
C         27.73309        24.50470        -1.26425
C         26.47238        25.19862        -1.48757
C         27.59552        27.43472        -1.46494
C         26.44270        26.53853        -1.79929
C         27.67297        28.82469        -2.03588
C         26.48009        29.32459        -2.85419
C         27.77569        31.36852        -2.51581
C         26.73696        30.46294        -1.94235
C         27.75966        32.83975        -2.29720
C         26.71277        33.36987        -1.39096
C         27.80611        35.70773        -1.69645
C         26.71516        34.83692        -1.11351
C         28.01760        37.05700        -1.11034
C         27.03646        37.59508        -0.23526
C         28.27273        39.70098        -0.17498
C         27.15383        38.94038         0.19975
C         28.57382        41.00695         0.47971
C         27.65348        41.57473         1.49779
C         28.51442        43.90109         1.11359
C         27.68200        43.02517         1.84531
C         28.52914        45.28111         1.44060
C         27.62131        45.75634         2.43229
C         28.38513        48.18590         1.93839
C         27.36329        47.22431         2.49022
C         28.57591        49.50830         2.57293
C         27.51888        49.97329         3.44099
C         30.29856        20.29788        -1.19444
C         29.14484        20.98038        -1.38655
C         30.17656        23.15319        -0.78933
C         29.01839        22.40690        -1.14639
C         30.13664        24.56133        -0.84725
C         28.93236        25.23924        -1.12914
C         30.20701        27.41444        -1.37967
C         28.90720        26.72486        -1.14461
C         30.24810        28.69495        -1.91993
C         29.02056        29.38139        -2.27712
C         30.32223        31.44992        -2.98082
C         29.07096        30.69755        -2.66002
C         30.22831        32.92852        -2.61969
C         29.05224        33.56722        -2.39658
C         30.17005        35.86127        -2.74685
C         28.95811        35.05661        -2.41524
C         30.18018        37.33589        -2.44651
C         29.09939        37.85277        -1.55855
C         30.29855        40.03306        -1.56145
C         29.21968        39.17172        -1.08578
C         30.01425        41.45142        -1.40246
C         29.38351        41.95849        -0.30121
C         30.54614        44.29174        -0.44205
C         29.31766        43.40764        -0.02800
C         30.64425        45.60560         0.21360
C         29.57736        46.14403         0.89751
C         30.76993        48.41812         1.07904
C         29.53942        47.61313         1.15325
C         30.84053        49.72009         1.55375
C         29.71024        50.28397         2.28049
C         30.93562        52.40705         2.48655
C         29.82787        51.64612         2.73214
C         32.92864        18.89307        -0.69074
C         32.79071        20.26393        -0.58020
C         31.45798        20.92275        -0.53899
C         32.67686        23.17419        -0.18652
C         31.39997        22.43624        -0.34600
C         32.60393        24.64365        -0.09544
C         31.32397        25.36665        -0.46081
C         32.63937        27.41964        -0.99658
C         31.40953        26.75578        -0.96701
C         32.72150        28.78948        -1.50162
C         31.50522        29.43496        -1.99422
C         32.81095        31.50009        -2.51958
C         31.54121        30.75732        -2.41092
C         32.80055        32.99010        -2.39034
C         31.49839        33.70856        -2.49152
C         32.78302        35.93048        -2.82167
C         31.49397        35.16044        -2.88660
C         32.79723        37.41992        -2.66876
C         31.48220        38.11680        -2.54877
C         32.68789        40.31256        -2.46467
C         31.46863        39.53095        -2.09069
C         32.79158        41.82195        -2.39845
C         31.68527        42.67589        -1.94292
C         33.11513        44.23205        -0.69653
C         31.77078        43.67117        -1.01407
C         33.15134        45.67489        -0.30347
C         31.85224        46.41166        -0.10096
C         33.23696        48.48758         0.54686
C         31.91578        47.82699         0.37119
C         33.22369        49.93875         0.82707
C         32.06064        50.52001         1.36690
C         33.23611        52.69589         1.57210
C         32.08822        51.89122         1.80193
C         33.34545        54.05348         1.97852
C         35.24411        18.87571         0.14282
C         34.12271        18.21141        -0.33251
C         35.30054        20.33889        -0.03955
C         33.98498        21.08560        -0.39717
C         35.11054        23.25771         0.28826
C         33.89447        22.53160        -0.06952
C         35.09283        24.71138         0.18494
C         33.86269        25.39696        -0.17726
C         35.02944        27.55125        -0.29686
C         33.82501        26.73995        -0.52052
C         35.16782        28.81347        -1.07093
C         33.93109        29.47210        -1.52027
C         35.28430        31.65271        -1.74975
C         34.09831        30.81590        -2.09413
C         35.27192        33.07100        -2.00552
C         34.08252        33.73091        -2.41813
C         35.26760        36.01106        -2.19375
C         33.99721        35.20251        -2.32359
C         35.28825        37.45667        -2.51669
C         33.98844        38.11054        -2.57956
C         35.16122        40.22845        -3.26331
C         34.05396        39.60745        -2.32560
C         35.17906        41.81042        -3.25998
C         34.17874        42.34807        -2.18538
C         35.64660        44.40314        -1.50183
C         34.33342        43.59113        -1.34172
C         35.50813        45.91797        -1.39480
C         34.30641        46.52680        -0.74912
C         35.57671        48.74945        -0.55086
C         34.43506        47.86612        -0.07684
C         35.64252        50.07147         0.20196
C         34.43947        50.66463         0.64182
C         35.75095        52.87448         0.92789
C         34.38900        52.11024         0.88034
C         35.78976        54.17664         1.62065
C         34.54289        54.75130         1.98951
C         37.30282        16.28757         1.96025
C         36.33930        16.80664         1.10672
C         37.38601        18.98204         1.38851
C         36.33121        18.19532         0.84259
C         37.10613        20.37796         1.54523
C         36.25388        21.12142         0.76202
C         37.49702        23.29642         1.04925
C         36.26266        22.57638         0.74593
C         37.45403        24.76923         0.94184
C         36.25332        25.43476         0.41237
C         37.54574        27.61786         0.08478
C         36.26417        26.90154         0.25645
C         37.59955        28.94738        -0.28197
C         36.44227        29.58879        -0.95744
C         37.55922        31.82525        -0.84109
C         36.41929        31.05573        -1.17984
C         37.61646        33.18014        -1.25439
C         36.48998        33.81221        -1.80757
C         37.79908        36.08282        -2.07404
C         36.54167        35.24515        -2.21712
C         37.73400        37.57660        -2.09465
C         36.49095        38.17903        -2.50574
C         37.77358        40.45487        -2.60523
C         36.52985        39.61965        -2.89949
C         37.69051        41.95959        -2.62375
C         36.50582        42.53390        -2.99901
C         38.11302        45.06307        -3.06990
C         36.05260        43.97399        -2.93211
C         37.85318        46.25449        -2.14726
C         36.79352        46.69401        -1.42828
C         38.05908        48.83381        -0.70202
C         36.86992        47.92504        -0.50241
C         38.13428        50.07466        -0.10081
C         36.90013        50.74466         0.34555
C         38.22356        52.70049         1.21001
C         36.95841        52.06179         0.82745
C         38.26411        54.14430         1.48532
C         37.03563        54.81797         1.81034
C         38.29744        56.80950         2.46327
C         37.11797        56.15555         2.35849
C         40.37583        14.59954         2.43528
C         40.34727        15.99264         2.56058
C         38.37825        17.08679         2.40158
C         39.90113        19.12895         2.16518
C         38.55687        18.41904         2.00929
C         39.97935        20.57229         1.74637
C         38.90136        21.39784         1.88529
C         40.02636        23.41918         1.23152
C         38.74846        22.72205         1.32808
C         40.04208        24.84771         1.11297
C         38.75064        25.55732         1.02048
C         40.07027        27.65693         0.34338
C         38.78299        26.88533         0.33686
C         39.99066        29.12140         0.27382
C         38.80140        29.72037        -0.10079
C         39.85055        32.00945         0.42005
C         38.66510        31.19308        -0.06642
C         39.80413        33.43981        -0.00212
C         38.88110        33.92550        -1.04801
C         39.88691        36.27947        -0.67340
C         38.96395        35.39551        -1.44105
C         39.91703        37.75866        -0.91402
C         38.85233        38.36353        -1.75080
C         40.02393        40.52282        -1.44394
C         38.91285        39.79345        -1.89892
C         40.00689        42.00754        -1.56321
C         38.91929        42.70671        -2.29118
C         40.35891        44.75292        -2.30035
C         39.08455        44.07895        -2.44630
C         40.36982        46.23295        -2.50027
C         39.12216        47.02859        -2.19037
C         40.53169        48.90980        -1.13300
C         39.20821        48.32910        -1.46872
C         40.55316        50.32197        -0.69498
C         39.40642        50.80340        -0.07588
C         40.72636        52.87862         0.51550
C         39.53669        52.03371         0.70995
C         40.68400        54.22478         0.92156
C         39.49793        54.82411         1.45705
C         40.68185        57.14953         1.55148
C         39.55050        56.22095         1.97004
C         40.60101        58.62357         1.63799
C         42.45220        14.80025         1.25934
C         41.41001        14.00247         1.71705
C         42.45769        16.19746         1.46435
C         41.31799        16.85039         1.99823
C         42.48431        19.10148         1.58497
C         41.24952        18.35379         2.06526
C         42.49863        20.48975         1.38932
C         41.19236        21.19079         1.08108
C         42.51057        23.42155         1.46118
C         41.21030        22.69391         1.25734
C         42.48183        24.86123         0.99871
C         41.25000        25.54751         1.00540
C         42.50071        27.72216         0.67430
C         41.22746        27.05176         1.10048
C         42.44657        29.15010         0.53630
C         41.19817        29.87541         0.52905
C         42.43612        31.94126         0.73611
C         41.16658        31.28400         0.61648
C         42.56209        33.32171         1.05477
C         40.72495        34.34757         0.50420
C         42.30829        36.29110         0.11255
C         41.01405        35.61008        -0.02168
C         42.28254        37.79799         0.09608
C         41.15720        38.50489        -0.60724
C         42.44821        40.62111        -0.51355
C         41.19288        39.86325        -0.86365
C         42.58252        42.08754        -0.82504
C         41.35730        42.78477        -1.34646
C         42.93282        44.61502        -2.37531
C         41.53300        44.08467        -1.98379
C         42.92953        46.14292        -2.25567
C         41.66445        46.90721        -2.28366
C         42.99847        49.02033        -1.77189
C         41.75118        48.24194        -1.62895
C         42.89570        50.51864        -1.64644
C         41.79825        51.03527        -0.71474
C         43.16036        53.05907        -0.18199
C         41.87251        52.30510        -0.14716
C         43.09896        54.53863         0.07611
C         41.75286        55.12634         0.38983
C         42.84106        57.47009         0.22525
C         41.68613        56.60380         0.58340
C         42.75924        58.81148         0.48694
C         41.61090        59.38450         1.14636
C         44.89929        16.24992         1.13266
C         43.69718        16.94479         1.27651
C         44.93842        19.06335         1.12266
C         43.70353        18.37034         1.35383
C         44.94600        20.49029         1.11494
C         43.73486        21.21122         1.18795
C         44.92623        23.40369         0.86126
C         43.75390        22.66148         1.07988
C         44.90511        24.83074         0.69958
C         43.69576        25.55752         0.75423
C         44.90616        27.69949         0.18913
C         43.68378        27.00653         0.55217
C         44.88105        29.14693         0.07481
C         43.65930        29.84638         0.34489
C         44.88102        31.98777         0.36607
C         43.65609        31.26309         0.44731
C         44.89446        33.40330         0.51213
C         43.66682        34.09524         0.76643
C         44.78940        36.34412         0.89062
C         43.57935        35.56469         0.48283
C         44.88214        37.75934         0.54704
C         43.62331        38.48062         0.22760
C         45.03614        40.56995        -0.15601
C         43.73823        39.84795        -0.35377
C         44.99913        42.09606        -0.05866
C         43.92649        42.74301        -0.95405
C         45.41017        44.63401        -1.49174
C         44.10638        43.95194        -1.59848
C         45.78090        45.86579        -2.02439
C         43.98802        46.95675        -2.54440
C         45.50040        49.03367        -2.29613
C         44.11854        48.36915        -2.19451
C         45.42354        50.46227        -1.72464
C         44.25832        51.10579        -1.43793
C         45.35879        53.37134        -1.62827
C         44.34267        52.49616        -0.90103
C         45.51188        54.83146        -1.01273
C         44.22707        55.42670        -0.37387
C         44.55669        57.59982        -1.53582
C         43.91370        56.87730        -0.57059
C         46.11136        16.92715         0.97766
C         47.43496        18.98498         0.59277
C         46.14804        18.31418         0.93022
C         47.46708        20.47446         0.60783
C         46.23547        21.21833         1.05184
C         47.45291        23.37718         0.30706
C         46.24321        22.71192         0.88829
C         47.48130        24.85503         0.38879
C         46.17439        25.58877         0.55272
C         47.28724        27.65644        -0.46323
C         46.10706        27.00304         0.11711
C         47.22314        29.17419        -0.68988
C         46.04829        29.88424        -0.18162
C         47.29779        32.04938        -0.04609
C         46.09659        31.30892         0.04133
C         47.33925        33.43940         0.26546
C         46.11656        34.10853         0.52879
C         47.37126        36.24243         0.87433
C         46.11539        35.52068         0.90497
C         47.30237        37.69235         1.15800
C         46.09713        38.44734         0.69880
C         47.43597        40.54551         0.61565
C         46.20603        39.84733         0.44921
C         47.48217        41.96045         0.26452
C         46.39314        42.63450        -0.22104
C         47.80898        44.74164        -0.56954
C         46.55049        43.95378        -0.84030
C         47.82125        46.19948        -0.74798
C         46.75051        46.79759        -1.46149
C         47.64311        48.99360        -0.96275
C         46.64198        48.22868        -1.59726
C         47.90367        50.43674        -1.34858
C         46.67082        51.23007        -1.59022
C         47.97569        53.30483        -1.82343
C         46.69520        52.60617        -1.66740
C         48.06165        54.58406        -2.42152
C         46.01253        55.74108        -2.11719
C         45.56342        56.99986        -2.36519
C         49.37080        18.88915        -0.95499
C         48.43677        18.25318        -0.23141
C         49.34921        20.36143        -1.14558
C         48.37115        21.18567        -0.36357
C         49.64448        23.31144        -0.89066
C         48.49767        22.67315        -0.23110
C         49.88055        24.78732        -0.68521
C         48.71436        25.57404        -0.09771
C         49.76145        27.69881        -0.79445
C         48.62430        27.01440        -0.42106
C         49.76021        29.16336        -1.08523
C         48.48565        29.95219        -0.93392
C         49.81111        32.12053        -0.36073
C         48.52808        31.41648        -0.56088
C         49.83632        33.43583         0.13083
C         48.59057        34.14526         0.39048
C         49.82509        36.21587         1.12978
C         48.56826        35.52924         0.74763
C         49.88658        37.68848         1.15936
C         48.63240        38.45142         1.25659
C         49.93850        40.53421         0.97808
C         48.65330        39.88497         0.95027
C         49.99514        41.96238         0.74098
C         48.73198        42.69880         0.58826
C         50.14520        44.86634         0.29533
C         48.82631        44.17429         0.37090
C         50.06861        46.38631         0.57598
C         48.80527        46.96039        -0.09585
C         50.42810        49.47957         0.16440
C         48.55103        48.32972        -0.11105
C         50.42076        50.68520        -0.47067
C         49.19296        51.22604        -1.11725
C         50.44146        53.34103        -1.66513
C         49.20147        52.67523        -1.47134
C         50.46052        54.62778        -2.21953
C         49.27671        55.23567        -2.63020
C         51.91759        20.56389        -1.28717
C         50.54660        21.03656        -1.79615
C         52.41996        23.53144        -1.58258
C         50.43100        22.52839        -1.68828
C         52.32467        24.93505        -1.27835
C         51.02978        25.60181        -1.22351
C         52.25193        27.77285        -1.09928
C         50.99903        26.98966        -1.05077
C         52.30150        29.20144        -0.71846
C         51.05803        29.94352        -1.00114
C         52.37407        32.07261        -0.36468
C         51.04555        31.43077        -0.76768
C         52.31822        33.41130         0.23919
C         51.10583        34.08688         0.37738
C         52.35804        36.24277         0.90578
C         51.11901        35.45168         0.95678
C         52.35370        37.59835         1.15461
C         51.10857        38.35692         1.20004
C         52.40747        40.53741         1.38269
C         51.12826        39.80305         1.21378
C         52.45120        41.97444         0.89098
C         51.18125        42.63562         0.51624
C         52.55407        44.49008        -0.42014
C         51.25763        44.06677         0.22261
C         52.70064        46.51157         0.62045
C         51.37650        47.16759         0.28415
C         52.84543        49.15981        -0.08892
C         51.52863        48.53873         0.13900
C         52.94719        50.57376        -0.45491
C         51.71850        51.37821        -0.58122
C         53.03373        53.12086        -1.81694
C         51.74329        52.74207        -1.22462
C         53.10478        21.22013        -1.13685
C         54.69297        23.30889        -0.65756
C         53.36459        22.65277        -1.11175
C         54.39545        24.64827         0.04748
C         53.44328        25.52933        -0.73341
C         54.65445        27.64394        -0.14345
C         53.51551        26.96957        -0.75342
C         54.70602        29.04910        -0.09350
C         53.49997        29.82301        -0.34629
C         54.74391        31.85844         0.36239
C         53.56982        31.24419        -0.10430
C         54.77468        33.28971         0.59334
C         53.57987        34.02377         0.54498
C         54.92293        36.13811         0.89050
C         53.59933        35.49121         0.62251
C         54.90871        37.50720         1.47789
C         53.62884        38.27165         1.53338
C         54.92250        40.29905         0.77749
C         53.74589        39.79569         1.62742
C         55.00169        41.75085         0.40271
C         53.74195        42.54499         0.37251
C         55.07726        44.62379         0.09986
C         53.84891        44.00888         0.17163
C         55.21516        46.08932        -0.35031
C         53.85917        46.91941        -0.31031
C         55.28298        49.12575         0.15167
C         53.99031        48.40263        -0.02909
C         55.42237        50.28679        -0.84138
C         54.14922        51.12758        -0.86198
C         54.15470        52.38010        -1.57759
C         56.60127        23.08799         0.96124
C         55.62856        22.50782         0.23303
C         56.79798        24.56883         1.06448
C         55.67644        25.39911         0.48714
C         57.00473        27.53224         0.12648
C         55.79034        26.84668         0.12088
C         57.10766        28.90749         0.43662
C         55.91747        29.68373         0.31677
C         57.19956        31.70815         0.83634
C         55.96032        31.09566         0.53211
C         57.25040        33.13097         1.07336
C         56.03584        33.91993         0.96473
C         57.28500        35.99349         1.66091
C         56.08386        35.29479         1.18657
C         57.37073        37.46429         1.44496
C         56.21726        38.19626         1.39548
C         57.49613        40.31042         0.85685
C         56.21784        39.57427         0.88459
C         57.51823        41.70159         0.67360
C         56.29648        42.47561         0.45334
C         57.62847        44.57480         0.07628
C         56.30539        43.85504         0.29386
C         57.57319        46.04200         0.49781
C         56.43051        46.79728         0.28752
C         57.70340        48.94054         0.31130
C         56.50887        48.24563         0.23192
C         57.73335        50.37678         0.04360
C         56.68225        51.04295        -0.47829
C         58.74499        24.67792         2.69484
C         58.13385        25.13341         1.51432
C         59.39856        27.27751         1.73975
C         58.59930        26.36731         1.02752
C         59.47279        28.71297         1.35844
C         58.35371        29.48760         0.88960
C         59.64614        31.56598         1.23592
C         58.40066        30.91820         0.97813
C         59.71269        33.01971         1.25724
C         58.48808        33.75733         1.30605
C         59.84510        35.91526         1.44518
C         58.57841        35.18990         1.64601
C         59.85693        37.37268         1.40982
C         58.65599        38.12531         1.31739
C         59.93975        40.22778         1.15943
C         58.69171        39.54880         1.11512
C         59.96865        41.66849         1.05235
C         58.77605        42.40391         0.77661
C         60.04019        44.49151         0.83410
C         58.82264        43.81843         0.63380
C         60.10506        45.94870         0.77942
C         58.83631        46.69368         0.87593
C         60.25151        48.81016         0.43442
C         58.93126        48.24818         0.72100
C         59.71193        25.46760         3.33402
C         59.99490        26.77075         2.91243
C         60.66468        29.39609         1.65505
C         60.77543        30.77754         1.52148
C         60.92406        33.72534         1.23982
C         60.97879        35.13586         1.23999
C         61.08757        38.08354         1.40501
C         61.12405        39.45994         1.31962
C         61.17916        42.37945         1.23670
C         61.20691        43.75339         1.15853
C         61.30085        46.62468         0.69859
C         61.37169        48.04038         0.50671
O         32.05040        33.43878        -1.15205
O         25.58128        40.86077         0.41851
O         40.71099        18.84356         3.33990
O         41.46289        33.95223         1.62153
O         44.30028        52.46982         0.55478
O         26.36131        43.43469         5.80995
O         39.28162        16.51395         3.30350
O         35.04329        20.81941        -1.38161
O         25.98420        47.53024         2.05058
O         31.14727        21.50694         0.77141
O         34.70642        42.20722        -4.54480
O         37.78557        20.96937         2.61412
O         39.68640        26.90237        -0.83677
O         26.51678        35.61160        -2.37099
O         44.66278        39.99267        -1.46676
O         41.09333        46.79022        -3.64940
O         37.53591        39.86858        -3.92791
O         55.35508        39.51255        -0.36056
O         29.31806        44.22631        -1.22045
O         30.51589        38.04847        -3.67032
O         41.33942        48.09117        -0.20225
O         57.87263        35.52038         2.90474
O         32.57932        41.13379        -3.65921
O         34.44962        35.71640        -1.00870
O         48.08217        20.80496        -1.75802
O         45.11274        46.38608        -3.13084
O         48.09920        19.73297         1.69062
O         55.62539        46.03743        -1.70252
O         51.88571        32.10544        -1.75212
O         47.71939        43.94734        -1.78730
O         52.49934        44.86250        -1.58513
O         42.66368        38.43457         1.35312
O         37.39479        35.51536        -3.36276
O         30.43643        42.29520        -2.44007
O         36.14352        28.78863        -2.17513
O         40.30578        42.74539        -0.34160
O         34.89611        52.87911        -0.25408
O         51.41999        23.11167        -2.47722
O         25.42790        33.26448         1.42012
O         45.34882        35.88113         2.13217
O         50.48359        29.52596        -2.29089
O         51.76171        52.60939         0.24441
O         43.26464        35.79443        -0.94060
O         35.34078        27.66344         1.13226
O         44.11089        55.01005         1.02627
O         49.82760        25.15959         0.74748
O         47.08162        25.37005         1.70816
O         38.75881        31.66829         1.33813
O         54.40784        36.08073        -0.47535
O         23.74898        25.32723        -2.97533
O         58.14072        26.79842        -0.22167
O         28.06200        27.28983        -0.08423
O         47.83114        38.09537         2.45267
O         58.78854        47.58987         2.02212
O         48.91899        50.48385        -2.40572
O         53.22002        27.45034        -2.12674
O         50.46721        35.54586         2.27606
O         28.39067        48.24572         0.47616
O         49.24134        49.11456         0.79284
O         54.18695        37.61866         2.74439
O         46.48665        22.09026         2.20481
O         25.00822        27.67085        -3.67364
O         32.25651        35.43789        -4.09632
O         37.90724        25.46378         2.19182
O         29.18593        35.55248        -3.78088
O         52.84601        46.00789         1.73182
O         48.42077        43.69061         1.67485
O         42.29600        41.60619         0.55088
O         46.94914        55.22661        -2.99916
O         34.62166        42.26872        -0.79510
O         33.37659        44.63672         0.69180
O         27.29464        32.26500        -3.56805
O         37.97145        45.11347        -4.27299
O         52.37024        41.66576         2.32008
O         31.69591        25.17508         0.94367
O         34.23199        47.75707         1.36025
O         31.63343        47.49788        -1.05142
O         39.59675        34.39242        -2.26841
O         39.23315        37.18150         0.30312
O         46.96026        28.24289        -1.78062
O         40.71270        56.47093         2.84862
O         33.72327        30.96267        -3.51269
O         39.07272        51.90152         2.08948
O         41.15079        55.98240        -0.65378
O         55.80199        25.22680         1.95699
O         38.98679        48.27546        -2.93317
O         28.84809        40.84035         1.93304
O         48.32726        30.95373        -1.97089
O         34.44731        46.50875        -2.20183
O         54.23272        41.89449        -0.85438
O         55.59437        49.74059        -2.16916
H         55.62972        50.48105        -2.80887
O         25.15403        35.77651         3.18298
H         25.53525        34.93313         2.85023
O         42.44070        50.96436        -2.96986
H         43.19146        50.88022        -3.59682
O         57.83896        44.58961        -1.36596
H         57.05469        45.08615        -1.75152
O         35.53372        44.54498        -3.88049
H         34.96121        43.14843        -4.72611
O         50.52175        20.67111        -3.19807
H         51.08766        21.32156        -3.66894
O         42.62314        23.54477         2.94999
H         43.56760        23.71156         3.16322
O         25.19092        24.29587         0.26693
H         26.03953        23.90907         0.57145
O         41.03601        21.00451        -0.38129
H         41.07213        20.04225        -0.56784
O         36.59691        43.97686        -0.52813
H         36.27952        43.12768        -0.14231
O         46.50675        54.77909         0.02143
H         46.02944        54.57987         0.86186
O         25.99114        30.49754         0.33868
H         25.63072        31.11169         1.01465
O         35.36312        49.08393        -1.93490
H         34.55830        49.63555        -2.02001
O         45.82484        49.15943        -3.69456
H         45.92571        48.25150        -4.05669
O         53.35709        46.96547        -1.65726
H         54.12232        46.66242        -2.22503
O         53.62497        24.30677         1.22180
H         54.18285        24.52021         2.01113
O         44.67090        42.43268         1.31525
H         43.72737        42.17890         1.47345
O         44.82604        53.49328        -2.96414
H         45.53623        53.83605        -3.55137
O         49.87055        46.45009         2.00437
H         50.69946        46.13881         2.43315
O         55.42561        23.61627        -1.86961
H         55.59900        22.78128        -2.35158
O         34.87226        39.74823        -4.56973
H         34.59799        40.51640        -5.12514
O         34.52034        39.75848        -0.96651
H         34.04005        39.13528        -0.38301
O         30.50767        31.44649        -4.43376
H         29.65044        31.69761        -4.84190
O         43.10724        44.24735        -3.76219
H         42.55637        44.85017        -4.30751
O         54.18111        40.12545         2.95979
H         53.52767        39.77737         3.60190
O         40.99782        27.38089         2.50123
H         41.66269        26.90891         3.04517
O         23.74199        39.06218         0.56637
H         23.91350        39.95564         0.18550
O         26.67454        29.54707        -4.23450
H         26.20409        28.82631        -4.71112
O         55.17442        49.76761         1.46162
H         55.20454        49.07141         2.15076
O         36.96773        47.39812         0.84247
H         37.82137        46.92916         0.94813
H         22.68213        23.55360        -0.40911
H         20.56699        24.80860        -0.69046
H         20.53705        27.11844        -1.47852
H         20.67128        29.07096        -1.32059
H         21.01714        31.34949        -0.50490
H         21.40433        32.76426         0.80326
H         21.81015        34.84180         2.02516
H         22.36586        36.37597         3.36106
H         22.66605        38.68168         4.12442
H         23.84936        39.69232         5.43474
H         24.78113        41.60704         6.71818
H         24.89997        44.60386         7.52196
H         24.69998        48.38891         5.48379
H         24.02297        46.96799         7.39298
H         24.45983        22.41562        -2.01046
H         25.70555        49.64812         4.47093
H         26.64259        21.31616        -2.02785
H         27.55321        51.00850         3.80717
H         30.37053        19.25100        -1.52139
H         28.29675        20.44662        -1.83556
H         30.94361        53.44767         2.83732
H         28.98712        52.11126         3.26297
H         32.04336        18.27554        -0.89870
H         32.45550        54.57050         2.36275
H         34.08061        17.11403        -0.29230
H         34.52267        55.77873         2.37759
H         37.26098        15.23663         2.27522
H         35.54549        16.15496         0.71847
H         38.33655        57.80342         2.92907
H         36.20342        56.64241         2.72158
H         39.57589        14.00180         2.88993
H         39.76261        59.09008         2.17269
H         43.29520        14.31705         0.75062
H         41.43020        12.91605         1.55974
H         43.57370        59.48395         0.18382
H         41.57311        60.47739         1.25786
H         44.91956        15.15396         1.14577
H         44.28522        58.64881        -1.71454
H         47.03334        16.34033         0.87870
H         45.99072        57.57306        -3.19744
H         50.12362        18.31446        -1.51371
H         48.45002        17.15480        -0.18747
H         51.41402        55.15258        -2.36333
H         49.28690        56.22011        -3.11457
H         51.97322        19.46675        -1.18973
H         53.09406        53.99147        -2.48558
H         53.95993        20.58145        -0.85601
H         55.10752        52.71179        -2.01961
H         57.29540        22.45196         1.53399
H         55.56369        21.40802         0.21804
H         58.65858        50.92634         0.27147
H         56.76126        52.11859        -0.69711
H         58.44106        23.72160         3.14331
H         60.32947        49.85794         0.11203
H         60.18364        25.09020         4.25171
H         60.64927        27.40867         3.52297
H         61.54094        28.82200         1.98776
H         61.74214        31.25495         1.73064
H         61.87120        33.17618         1.14850
H         61.95859        35.61007         1.09164
H         62.03418        37.53564         1.50402
H         62.10277        39.95595         1.34837
H         62.10751        41.84540         1.47593
H         62.15240        44.27627         1.35192
H         62.24619        46.06741         0.65162
H         62.35678        48.48927         0.31602
