         430
 CSIRO Nanostructure Databank - Neutral Graphene Oxide Data Set
C         27.98146        27.40172        -0.69205
C         27.94539        28.73778         0.01348
C         26.68858        29.51305        -0.26089
C         27.92589        31.61390        -0.55118
C         26.69400        30.84783        -0.46453
C         27.90044        33.05991        -0.67195
C         26.74587        33.81164        -0.50046
C         27.94512        35.95699        -0.42936
C         26.78733        35.22375        -0.30446
C         28.01211        37.39896        -0.22785
C         26.86418        38.09952         0.27954
C         27.94965        40.26858         0.03556
C         26.86156        39.47314         0.43777
C         27.94955        41.68871         0.16919
C         26.76677        42.40509         0.50772
C         27.95765        44.51518         0.36180
C         26.76762        43.78087         0.59455
C         27.97110        45.94503         0.49468
C         30.39590        27.32126        -0.16037
C         29.14123        26.74489        -0.78992
C         30.41916        28.82977        -0.35329
C         29.20484        29.51957        -0.30877
C         30.42510        31.64112        -0.87218
C         29.14607        30.92818        -0.50772
C         30.35622        33.11812        -0.60502
C         29.16992        33.77622        -0.71151
C         30.44507        35.98350        -0.74851
C         29.14787        35.25589        -1.00796
C         30.42203        37.45862        -1.04572
C         29.16314        38.11977        -0.52790
C         30.42278        40.32228        -0.44086
C         29.10335        39.61711        -0.68191
C         30.41451        41.70249        -0.27144
C         29.16117        42.42240        -0.05809
C         30.38266        44.61685        -0.32587
C         29.15424        43.82298         0.04892
C         30.40691        46.02278         0.23500
C         29.14259        46.65680         0.46133
C         32.88034        24.55882        -0.13435
C         31.71207        25.19789        -0.36098
C         32.93051        27.38624        -0.35475
C         31.65886        26.65452        -0.72352
C         32.91441        28.79640        -0.31125
C         31.67180        29.51938        -0.40761
C         32.88473        31.64311        -0.24254
C         31.68842        30.94205        -0.42363
C         32.85418        33.11407        -0.04759
C         31.57712        33.86337        -0.23501
C         32.88222        36.02010        -0.34070
C         31.61558        35.32756        -0.46038
C         32.89239        37.44422        -0.42432
C         31.67705        38.17724        -0.60200
C         32.90113        40.29837        -0.35538
C         31.65947        39.58029        -0.48224
C         32.89779        41.72014        -0.26747
C         31.65894        42.44472        -0.21278
C         32.87974        44.56282         0.03742
C         31.65939        43.84576        -0.10939
C         32.88395        45.97322         0.31405
C         31.61880        46.68627         0.41442
C         32.82860        48.77117         0.92038
C         31.67405        48.11125         0.69387
C         35.41424        23.11741         0.01843
C         35.38411        24.54278        -0.03592
C         34.15168        25.25008        -0.14180
C         35.39163        27.39417        -0.10593
C         34.15229        26.67679        -0.21012
C         35.38255        28.81910        -0.11215
C         34.14368        29.52122        -0.19405
C         35.35666        31.65767         0.01833
C         34.13101        30.94603        -0.13698
C         35.32456        33.11374         0.24200
C         34.10869        33.88209        -0.04205
C         35.36754        36.01039        -0.10621
C         34.10567        35.28368        -0.12796
C         35.36439        37.43590        -0.22222
C         34.13463        38.15481        -0.31441
C         35.36855        40.30835        -0.37421
C         34.13447        39.58480        -0.34781
C         35.34803        41.71628        -0.42476
C         34.12948        42.43478        -0.27022
C         35.32115        44.58494         0.09642
C         34.11637        43.86156        -0.05844
C         35.33423        45.96204         0.39128
C         34.10002        46.64717         0.53662
C         35.35728        48.84086         0.59404
C         34.14328        48.06122         1.07508
C         35.35315        50.22882         0.48837
C         37.85074        23.10457         0.10190
C         36.59925        22.42900         0.09464
C         37.85913        24.52987         0.04020
C         36.62512        25.25219        -0.00916
C         37.86084        27.40485         0.00400
C         36.62968        26.68603        -0.02755
C         37.84915        28.83381        -0.01247
C         36.61317        29.54440        -0.04772
C         37.85010        31.70187        -0.06763
C         36.59879        30.97746         0.00762
C         37.88336        33.11741        -0.06807
C         36.65726        33.87396         0.21747
C         37.84076        36.00357        -0.16267
C         36.60137        35.32008        -0.04013
C         37.83705        37.44172        -0.20668
C         36.60992        38.14841        -0.22280
C         37.84692        40.26889        -0.25235
C         36.62595        39.58341        -0.30403
C         37.92940        41.71245        -0.65907
C         36.61106        42.46755        -0.57241
C         37.81158        44.53292         0.43968
C         36.59904        43.91784        -0.20850
C         37.81694        46.03043         0.29285
C         36.60146        46.70025         0.40028
C         37.79559        48.86417         0.20726
C         36.58050        48.14304         0.40251
C         37.76082        50.28161         0.11700
C         36.53554        50.93499         0.21250
C         40.29893        20.25427         0.29818
C         39.11405        20.95072         0.25896
C         40.32086        23.08156         0.11466
C         39.08979        22.37393         0.16132
C         40.33173        24.51665         0.02856
C         39.10221        25.23921         0.01055
C         40.33934        27.36006        -0.05429
C         39.11245        26.67572        -0.01039
C         40.38223        28.84990         0.16162
C         39.07713        29.57462        -0.06913
C         40.31971        31.69263        -0.65965
C         39.07492        30.96138        -0.18382
C         40.35452        33.16527        -0.36942
C         39.09731        33.86101        -0.23665
C         40.33472        36.01876        -0.49314
C         39.06177        35.27358        -0.20102
C         40.30883        37.45948        -0.06124
C         39.07630        38.15741        -0.13098
C         40.31894        40.28437         0.07349
C         39.08062        39.57889        -0.09033
C         40.32387        41.73160         0.09070
C         39.11293        42.44842        -0.06515
C         40.31541        44.56369         0.17074
C         39.10014        43.83885         0.10184
C         40.29856        46.01837         0.17094
C         39.06264        46.73221         0.20099
C         40.28219        48.87143         0.06908
C         39.05051        48.15597         0.13509
C         40.29897        50.30033        -0.03056
C         39.00639        51.08023        -0.20883
C         40.26633        53.05582         0.58693
C         39.11389        52.37737         0.57869
C         42.77687        20.23275         0.25643
C         41.54347        20.93883         0.23807
C         42.80127        23.05050         0.08192
C         41.55346        22.35933         0.14943
C         42.80741        24.47890        -0.03516
C         41.57309        25.20830        -0.05032
C         42.79983        27.32639        -0.34159
C         41.57781        26.64810        -0.12817
C         42.84652        28.76771        -0.63257
C         41.56066        29.53324        -0.50980
C         42.83626        31.66217        -0.31785
C         41.61562        30.99007        -0.36339
C         42.83938        33.11119        -0.23667
C         41.58015        33.82614        -0.30417
C         42.74205        35.94248         0.15465
C         41.59311        35.27091        -0.13434
C         42.69213        37.36398         0.56666
C         41.48745        38.14850         0.22844
C         42.76628        40.26756         0.59294
C         41.51361        39.57027         0.31059
C         42.78332        41.72548         0.52335
C         41.53433        42.44240         0.27531
C         42.84341        44.55581         0.00037
C         41.52976        43.84870         0.18658
C         42.77601        46.04621         0.18857
C         41.52732        46.73311         0.15577
C         42.75365        48.87567         0.14225
C         41.51873        48.16575         0.12993
C         42.75451        50.30680         0.09923
C         41.49889        50.99521        -0.01126
C         42.76187        53.15641         0.23859
C         41.46583        52.50396        -0.15140
C         43.97567        20.90520         0.18824
C         45.27955        23.03991         0.05755
C         44.02486        22.32724         0.10008
C         45.28400        24.46164        -0.08697
C         44.04659        25.14873        -0.17420
C         45.37510        27.35583        -0.51910
C         44.02605        26.57254        -0.50664
C         45.31828        28.81392        -0.35093
C         44.12464        29.51234        -0.47521
C         45.30260        31.66249        -0.05480
C         44.08786        30.94502        -0.30597
C         45.26883        33.08120         0.12866
C         44.04627        33.79219        -0.02633
C         45.17314        35.86550         0.87837
C         44.09241        35.30631        -0.05443
C         45.24475        37.38240         0.88057
C         43.94419        38.09165         0.96855
C         45.16164        40.27287         1.29898
C         43.92294        39.57044         0.91340
C         45.19431        41.76461         1.10218
C         43.95126        42.43399         0.70261
C         45.26458        44.61067         0.62451
C         43.93258        43.93506         0.86421
C         45.25080        46.01377         0.38187
C         43.98749        46.73562         0.26145
C         45.21700        48.88154         0.16999
C         43.98868        48.16923         0.21538
C         45.22079        50.31210         0.15023
C         43.97583        51.02246         0.17211
C         43.92158        52.46682         0.30867
C         47.70986        23.05895         0.24547
C         46.51961        22.36386         0.17952
C         47.74242        24.47504         0.19228
C         46.53019        25.19508        -0.02399
C         47.73805        27.33397         0.30386
C         46.56866        26.61741        -0.08597
C         47.77348        28.76994         0.29462
C         46.64150        29.52867        -0.36224
C         47.73785        31.65169         0.35246
C         46.54466        30.96957         0.05460
C         47.72879        33.08251         0.45861
C         46.49921        33.79422         0.38797
C         47.70129        35.91163         0.69972
C         46.49627        35.20022         0.58868
C         47.70446        37.37097         0.83364
C         46.43031        38.06226         0.95730
C         47.66746        40.29707         0.87650
C         46.48341        39.51049         1.42042
C         47.67308        41.67881         0.77544
C         46.47604        42.45702         0.86332
C         47.72345        44.54953         0.42655
C         46.48145        43.86979         0.68192
C         47.76374        46.04802         0.54829
C         46.45238        46.73729         0.28538
C         47.67588        48.85118        -0.06887
C         46.45282        48.15228         0.13014
C         47.65813        50.26265        -0.06610
C         46.47668        50.97407         0.07322
C         50.24341        24.52920         0.35882
C         48.96428        25.19750         0.43082
C         50.10837        27.27760         1.14698
C         48.91845        26.58741         0.62595
C         50.10187        28.77678         1.20314
C         48.91476        29.49286         0.67796
C         50.18868        31.64026         0.76376
C         48.95518        30.91938         0.60145
C         50.20138        33.06719         0.72197
C         48.94786        33.79574         0.64529
C         50.19340        35.95226         0.99937
C         48.92533        35.19830         0.71442
C         50.13750        37.37990         0.53014
C         48.89680        38.07900         0.72707
C         50.07370        40.23736         0.14426
C         48.99155        39.57260         0.96053
C         50.09648        41.60080         0.04751
C         49.01062        42.40851         0.72541
C         50.06184        44.48557        -0.29916
C         48.91756        43.84000         0.23388
C         50.04795        45.92131        -0.53940
C         48.91595        46.69251        -0.17506
C         49.99316        48.70817        -0.99531
C         48.88612        48.08961        -0.38175
C         51.41979        25.17708         0.55596
C         52.71224        27.32727         1.04610
C         51.45159        26.53572         1.11316
C         52.69766        28.74010         1.07619
C         51.43189        29.50837         1.22814
C         52.64572        31.64937         0.83188
C         51.43090        30.95006         0.89207
C         52.66497        33.05910         0.65864
C         51.43112        33.77135         0.69053
C         52.56223        35.90855         0.20556
C         51.43211        35.21334         0.57980
C         52.50021        37.30762        -0.13305
C         51.26563        38.01423         0.02928
C         52.44496        40.13020        -0.67049
C         51.12889        39.40394        -0.54507
C         52.43250        41.55275        -0.77710
C         51.25216        42.29519        -0.48919
C         52.39764        44.37540        -1.11239
C         51.24137        43.72055        -0.63447
C         52.34566        45.79191        -1.62981
C         51.15479        46.57536        -1.13815
C         51.10025        47.95443        -1.37179
C         55.13278        27.35363         0.75694
C         53.94532        26.65557         0.91633
C         55.13149        28.76209         0.73281
C         53.91114        29.45051         0.92754
C         55.21821        31.66530         0.64070
C         53.92088        30.92618         0.99545
C         55.09790        33.07520         0.20658
C         53.89621        33.74450         0.36182
C         54.77418        35.71509        -0.96362
C         53.92032        35.25040         0.21673
C         54.84106        37.23488        -0.96081
C         53.65295        37.96757        -0.65492
C         54.85870        40.08132        -1.18806
C         53.63514        39.40186        -0.84047
C         54.86050        41.52929        -1.30546
C         53.64531        42.24336        -1.10366
C         54.83678        44.36521        -1.51698
C         53.61788        43.66125        -1.26132
C         54.82640        45.81532        -1.49535
C         53.66660        46.50459        -1.45655
C         56.34211        29.48569         0.39378
C         56.37332        30.83253         0.26165
C         56.23064        33.77714        -0.37932
C         56.11015        35.00335        -0.93318
C         55.98214        37.92020        -1.36055
C         56.00443        39.32260        -1.43366
C         56.03581        42.25377        -1.59896
C         56.02816        43.64542        -1.67395
O         36.63003        43.52641        -1.61699
O         31.99973        33.48033         1.13455
O         54.79249        31.47009         2.03629
O         36.00712        33.50434         1.48434
O         41.98856        29.07959        -1.83308
O         50.65240        29.27474         2.45692
O         45.01356        41.16638         2.47433
O         44.76263        26.88045        -1.75121
O         50.67413        26.66838         2.34483
O         43.04397        37.53741         2.00079
O         47.02563        29.56722        -1.80181
H         46.25781        29.92442        -2.29817
O         30.38372        37.60476        -2.52465
H         29.77523        36.88435        -2.84169
O         38.26520        41.62628        -2.08619
H         37.93224        42.46041        -2.49481
O         46.76750        39.37601         2.85992
H         46.29988        40.13601         3.28995
O         43.24826        44.32034        -1.38478
H         42.54673        44.67771        -1.96856
O         40.68065        29.02993         1.59451
H         39.92211        28.67484         2.10503
O         30.36321        27.05112         1.25907
H         29.51982        27.44012         1.60480
O         49.41672        42.52902         2.13011
H         49.54367        41.59914         2.45634
O         50.27575        36.03376         2.47725
H         50.95185        36.71004         2.69650
O         40.21966        31.60457        -2.14011
H         40.59301        30.73621        -2.41329
O         49.42031        39.71460         2.37302
H         48.62193        39.45924         2.90740
O         31.53637        26.74447        -2.18204
H         32.32074        26.30447        -2.57252
O         54.09200        35.32148        -2.18458
H         54.57932        35.70238        -2.94402
O         40.40681        36.08809        -1.97487
H         39.57959        36.51404        -2.28724
O         28.83233        39.82034        -2.12766
H         29.42768        39.18081        -2.60139
O         37.60538        44.25876         1.87154
H         38.32841        44.69940         2.36655
O         27.96625        28.45358         1.46190
H         27.95353        29.31718         1.92700
O         43.57218        44.17264         2.25544
H         44.16272        43.62560         2.81659
O         50.64831        39.19954        -1.92923
H         50.62443        40.08030        -2.36060
O         34.35488        47.92276         2.52805
H         33.61002        47.39235         2.88227
O         38.88425        51.43094        -1.61639
H         39.65729        52.01199        -1.83651
O         44.49142        35.70401        -1.40271
H         43.81690        35.36617        -2.02989
O         30.49583        31.55864        -2.35697
H         30.48115        30.60491        -2.59100
O         52.15152        45.66613        -3.09049
H         52.91885        45.16373        -3.43900
O         30.29320        44.80858        -1.78982
H         30.22126        43.91797        -2.19571
O         44.79531        35.45785         2.21976
H         45.31752        35.98142         2.86256
O         54.59012        35.75945         1.41085
H         54.19795        35.31418         2.19105
O         28.94821        35.30604        -2.48830
H         29.43151        34.54275        -2.87422
O         48.02613        46.26955         1.99577
H         48.76080        45.66983         2.25143
O         41.26464        52.81930        -1.58014
H         42.03277        52.45295        -2.06788
H         27.04983        26.99360        -1.11274
H         25.73547        28.96439        -0.22361
H         25.73782        31.36917        -0.61481
H         25.77279        33.31506        -0.38623
H         25.84851        35.70947        -0.00356
H         25.97709        37.53308         0.59084
H         25.98397        39.94160         0.90502
H         25.82623        41.86202         0.66989
H         25.84189        44.32122         0.83922
H         27.02232        46.45951         0.70539
H         29.19282        25.77092        -1.29912
H         29.10403        47.73375         0.67593
H         32.85716        23.48271         0.08544
H         30.76848        24.63374        -0.33335
H         32.78843        49.85027         1.12701
H         30.73937        48.68875         0.66745
H         34.47810        22.54549        -0.00275
H         34.42376        50.79934         0.61875
H         36.56421        21.33293         0.13558
H         36.48589        52.02639         0.09411
H         40.29417        19.15728         0.37203
H         38.17331        20.38727         0.30648
H         40.36322        54.01607         1.11618
H         38.22936        52.77191         1.10149
H         42.76246        19.13524         0.32185
H         42.76192        54.24913         0.36863
H         44.90641        20.32312         0.19779
H         44.85185        53.01034         0.52811
H         48.64022        22.49590         0.39679
H         46.54724        21.27011         0.26690
H         48.59918        50.82052        -0.17024
H         46.51971        52.07157         0.07096
H         50.27143        23.49447        -0.00964
H         49.98019        49.78516        -1.20980
H         52.36061        24.66838         0.30476
H         51.93348        48.45702        -1.88135
H         56.08032        26.80955         0.63736
H         53.97630        25.55836         0.94052
H         55.79306        46.34089        -1.46842
H         53.68661        47.60307        -1.42031
H         57.23470        28.89122         0.14775
H         57.28427        31.31847        -0.11567
H         57.20475        33.26783        -0.41404
H         56.97744        35.44212        -1.44849
H         56.90330        37.37585        -1.60881
H         56.94643        39.81013        -1.71749
H         56.98889        41.72756        -1.74137
H         56.96708        44.18730        -1.85783
