         424
 CSIRO Nanostructure Databank - Neutral Graphene Oxide Data Set
C          1.13656         2.05189         0.03211
C          1.10245         3.44597         0.07496
C          2.34847         1.36680        -0.05331
C          2.29367         4.20540         0.02186
C          1.08709         6.40770         0.13058
C          1.10793         7.78002         0.18771
C          2.29436         5.65172         0.07439
C          2.33440         8.51066         0.16108
C          1.19237        10.69883         0.51250
C          1.26386        12.04330         0.76394
C          2.36388         9.94159         0.16016
C          2.44357        12.79407         0.46778
C          1.69012        14.74012         1.80571
C          1.83048        16.01813         2.23155
C          2.57124        14.13579         0.81975
C          2.72417        16.95393         1.52378
C          3.07464        18.24191         2.15838
C          3.56583         2.07490        -0.12884
C          3.53779         3.51460        -0.10790
C          4.81355         1.38463        -0.12651
C          4.75816         4.24057        -0.11815
C          3.52543         6.35407         0.09239
C          3.56026         7.79231         0.11304
C          4.75273         5.62502         0.04899
C          4.79525         8.51128         0.03895
C          3.57804        10.62458        -0.11331
C          3.46355        12.11504        -0.42939
C          4.78641         9.91277        -0.17670
C          4.81031        12.83550        -0.45831
C          3.71784        14.90427         0.36795
C          3.67760        16.37730         0.50534
C          4.85420        14.27355        -0.09751
C          4.85339        17.20164        -0.02301
C          4.22083        18.88646         1.85594
C          5.17324        18.41086         0.86001
C          6.03079         2.05472        -0.26399
C          6.01763         3.53913        -0.56576
C          7.26631         1.39054        -0.24011
C          7.30377         4.20316        -0.17869
C          6.00020         6.34671         0.34093
C          6.05762         7.80581         0.18595
C          7.33697         5.56367         0.29884
C          7.27247         8.47633         0.27768
C          6.13164        10.55494        -0.52576
C          6.11092        12.08141        -0.50828
C          7.22228         9.98904         0.40023
C          7.35663        12.82344        -0.18195
C          6.10649        14.99821        -0.27852
C          6.10966        16.38028        -0.24112
C          7.36187        14.23884        -0.27247
C          7.33464        17.13953        -0.53851
C          6.32457        19.09081         0.65102
C          7.30929        18.66218        -0.41051
C          8.51943         2.05561        -0.28303
C          8.57272         3.53742        -0.61626
C          9.70761         1.37427        -0.09881
C          9.81548         4.21632        -0.07929
C          8.58040         6.35203         0.19193
C          8.53559         7.77781         0.27655
C          9.79416         5.65776         0.10514
C          9.76101         8.50462         0.24061
C          8.55322        10.67693         0.22047
C          8.55709        12.11738         0.09899
C          9.75873         9.95430         0.27031
C          9.77081        12.83754         0.24733
C          8.59745        14.92942        -0.18002
C          8.64538        16.37736        -0.43615
C          9.80588        14.23675         0.09011
C          9.87824        17.11280        -0.11965
C          8.66693        19.26403        -0.17001
C          9.85306        18.54884        -0.07902
C         10.97987         2.05084        -0.04210
C         10.98046         3.50864         0.07773
C         12.15211         1.33279        -0.02284
C         12.21566         4.21968         0.61629
C         11.03144         6.37686         0.16511
C         11.00447         7.80920         0.17490
C         12.25726         5.67512         0.20117
C         12.24074         8.51762         0.15582
C         11.01094        10.64604         0.31831
C         11.00377        12.10506         0.69185
C         12.22937         9.95216         0.24873
C         12.29113        12.82345         0.37638
C         11.07010        14.96374         0.17757
C         11.07464        16.40608         0.10068
C         12.28308        14.26947         0.30706
C         12.30649        17.12971         0.22258
C         11.09803        19.24176         0.12144
C         12.28854        18.56335         0.24434
C         13.46850         1.99050         0.07813
C         13.51863         3.46564         0.33438
C         14.62797         1.30400        -0.61053
C         14.73060         4.21626        -0.09246
C         13.48134         6.37098         0.08001
C         13.47564         7.81247         0.07128
C         14.71754         5.66069        -0.08050
C         14.70739         8.53386         0.02931
C         13.48277        10.66377         0.27646
C         13.47134        12.10600         0.33524
C         14.69906         9.95921         0.14677
C         14.78092        12.81909         0.55464
C         13.53850        14.99006         0.26274
C         13.54334        16.42123         0.24369
C         14.76099        14.28649         0.22236
C         14.78566        17.13134         0.23128
C         13.55402        19.36010         0.46839
C         14.82643        18.56438         0.30495
C         15.92326         2.06864        -0.48043
C         15.88346         3.50587        -0.39233
C         17.12142         1.38557        -0.58743
C         17.15036         4.22420        -0.78925
C         15.93296         6.38811        -0.23653
C         15.94485         7.82076        -0.13404
C         17.16320         5.69125        -0.43032
C         17.18278         8.51385        -0.20962
C         15.94571        10.69793        -0.00399
C         15.96051        12.06777         0.02190
C         17.20326         9.96125        -0.17147
C         17.19447        12.79197        -0.44998
C         15.98497        14.97882         0.07217
C         16.00472        16.41047         0.10927
C         17.20941        14.27535        -0.17846
C         17.24852        17.10320         0.03403
C         16.03363        19.23096         0.27767
C         17.27771        18.53322         0.13639
C         18.39503         2.04187        -0.52721
C         18.37836         3.52063        -0.21939
C         19.59210         1.35858        -0.56024
C         19.63771         4.25396        -0.60725
C         18.38528         6.36241        -0.41439
C         18.41256         7.79196        -0.30488
C         19.64360         5.63099        -0.56509
C         19.66377         8.46360        -0.28728
C         18.40274        10.63684        -0.11310
C         18.45002        12.12825         0.13508
C         19.66991         9.90780        -0.03969
C         19.69651        12.79382        -0.39906
C         18.40226        14.96086        -0.33629
C         18.45766        16.38445        -0.17394
C         19.62259        14.23209        -0.83830
C         19.69707        17.07936        -0.24620
C         18.50731        19.20657         0.09024
C         19.72634        18.50157        -0.08436
C         20.86185         2.03927        -0.57731
C         20.86547         3.48967        -1.00828
C         22.05746         1.37957        -0.41570
C         22.13880         4.22376        -0.68378
C         20.89442         6.36291        -0.61582
C         20.89668         7.77671        -0.45987
C         22.12673         5.64816        -0.65650
C         22.14722         8.49901        -0.52894
C         20.96469        10.67389        -0.21440
C         20.89842        12.12470        -0.51813
C         22.18038         9.92235        -0.57189
C         22.10555        12.81526        -0.84713
C         20.92039        14.95704        -0.61707
C         20.92808        16.35844        -0.43771
C         22.12972        14.23164        -0.77928
C         22.16810        17.05961        -0.44083
C         20.97445        19.17933        -0.10153
C         22.18590        18.48631        -0.26936
C         23.32991         2.06709        -0.44873
C         23.33770         3.51535        -0.56126
C         24.52818         1.38627        -0.30814
C         24.58466         4.22089        -0.50836
C         23.36686         6.35880        -0.62211
C         23.37156         7.78767        -0.64583
C         24.59361         5.64737        -0.58910
C         24.60868         8.49633        -0.73943
C         23.36716        10.61283        -0.85311
C         23.33146        12.06071        -1.28274
C         24.60600         9.91802        -0.88339
C         24.62751        12.79462        -1.03605
C         23.38560        14.93625        -0.81116
C         23.38943        16.34579        -0.63736
C         24.61624        14.21858        -0.95596
C         24.62872        17.05744        -0.67424
C         23.43945        19.17019        -0.27478
C         24.64186        18.49438        -0.47861
C         25.78900         2.07188        -0.28171
C         25.80188         3.50874        -0.39016
C         26.99618         1.38389        -0.13251
C         27.04050         4.21660        -0.36686
C         25.83364         6.35887        -0.60130
C         25.84198         7.78336        -0.71199
C         27.05700         5.64362        -0.49483
C         27.08031         8.49477        -0.76136
C         25.84683        10.63530        -0.96720
C         25.84099        12.08340        -1.02427
C         27.07209         9.92733        -0.87906
C         27.09211        12.79785        -1.03674
C         25.84604        14.94162        -1.01770
C         25.82448        16.35632        -0.90781
C         27.09402        14.22369        -1.12652
C         27.05222        17.13070        -1.17216
C         25.89822        19.18388        -0.43894
C         27.09739        18.54645        -0.73359
C         28.24196         2.07227        -0.08434
C         28.25750         3.50540        -0.21387
C         29.45738         1.38515         0.09402
C         29.49388         4.21552        -0.17480
C         28.29560         6.35097        -0.49537
C         28.30699         7.77665        -0.65413
C         29.51335         5.63624        -0.32111
C         29.55118         8.48126        -0.65380
C         28.32072        10.63708        -0.84680
C         28.32845        12.08968        -0.94876
C         29.51678         9.90755        -0.72696
C         29.54186        12.82229        -0.95844
C         28.32748        14.92194        -1.24417
C         28.33366        16.39177        -1.43534
C         29.55126        14.22690        -1.15422
C         29.65584        17.16221        -1.41588
C         28.35711        19.18088        -0.56483
C         29.58265        18.53007        -0.75199
C         30.68795         2.07819         0.15799
C         30.70979         3.50489         0.01876
C         31.91677         1.39759         0.36217
C         31.95009         4.20751         0.05832
C         30.76774         6.33023        -0.31548
C         30.78847         7.76560        -0.49079
C         31.96776         5.61742        -0.14595
C         32.03988         8.43875        -0.45343
C         30.78216        10.63388        -0.53603
C         30.81064        12.13058        -0.66019
C         32.05002         9.88378        -0.75395
C         32.10101        12.79541        -0.87894
C         30.81090        14.97060        -1.06535
C         30.82512        16.32891        -0.95001
C         32.10780        14.21978        -1.32340
C         32.07909        17.02805        -0.47702
C         30.80245        19.20111        -0.53526
C         32.05150        18.53912        -0.58606
C         33.12301         2.08865         0.46405
C         33.16216         3.49647         0.31741
C         34.37527         1.28688         0.71970
C         34.39886         4.23527         0.52905
C         33.29857         6.28269        -0.39874
C         33.27078         7.78283        -0.24223
C         34.45035         5.60880         0.29375
C         34.49262         8.49129        -0.07824
C         33.33656        10.63141        -0.77246
C         33.31356        12.11988        -0.73687
C         34.56153         9.92933        -0.32196
C         34.54056        12.81952        -0.68337
C         33.36276        14.94330        -0.92470
C         33.34010        16.43250        -1.11401
C         34.54379        14.25253        -0.68441
C         34.57051        17.12221        -0.59627
C         33.26436        19.21643        -0.51389
C         34.51991        18.52022        -0.42123
C         35.61850         2.11978         0.91022
C         35.57895         3.51381         0.93040
C         36.84914         1.42994         1.00851
C         36.79068         4.27610         1.40207
C         35.67711         6.35991         0.48265
C         35.69991         7.79943         0.26152
C         36.81585         5.71111         0.92947
C         36.91609         8.51842         0.41930
C         35.71586        10.64999        -0.18230
C         35.83300        12.05323        -0.75246
C         36.93136        10.03329         0.45236
C         37.03911        12.81939        -0.24674
C         35.79150        14.96854        -0.43795
C         35.77051        16.39323        -0.37613
C         36.99425        14.26106        -0.18906
C         36.97382        17.10787        -0.07668
C         35.72059        19.21879        -0.09925
C         36.92457        18.54487         0.05629
C         38.07805         2.11574         1.02501
C         38.09426         3.54398         1.14192
C         39.31900         1.41580         0.88957
C         39.30873         4.22206         1.12697
C         38.05454         6.46676         1.15353
C         38.11782         7.87107         0.74608
C         39.36015         5.68840         1.30280
C         39.38175         8.56190         0.78699
C         38.23278        10.62327        -0.12181
C         38.21388        12.13541         0.01360
C         39.44015         9.95654         0.50476
C         39.43013        12.84650         0.31748
C         38.19702        14.98883         0.09187
C         38.18075        16.40190         0.11460
C         39.42731        14.26816         0.34187
C         39.47671        17.18184         0.14539
C         38.11680        19.24563         0.48192
C         39.30881        18.59578         0.65730
C         40.51038         2.09441         0.82831
C         40.54244         3.51976         0.92619
C         41.74895         4.24504         0.81741
C         40.62091         6.40457         1.06062
C         40.60014         7.84237         1.02459
C         41.78040         5.64289         0.85727
C         41.80725         8.58254         1.12958
C         40.63469        10.67080         0.66931
C         40.64325        12.13075         0.56793
C         41.81404         9.95508         1.02007
C         41.81928        12.85998         0.79432
C         40.62649        14.97809         0.65568
C         40.61409        16.43095         0.78882
C         41.81000        14.25234         0.84963
C         41.61726        17.12427         1.41138
C         40.45430        19.26206         1.22599
C         41.56705        18.55227         1.57344
O         13.81797         2.49423         1.41701
O         20.49158        10.33805         1.14233
O         38.64948         6.19122         2.49659
O         27.51322        16.86592        -2.56252
O         30.79075        11.45176         0.68194
O          6.61941         5.83769         1.56883
O         32.73751        10.14437        -2.04014
O          8.03659        16.72778        -1.75207
O          2.41289        16.99127         0.07670
O          5.49735        12.60022        -1.74895
O         36.65670         4.35723         2.87174
H         37.38229         4.96027         3.17384
O          6.85074        19.20095        -1.68274
H          7.13936        18.56744        -2.37649
O         29.99192        17.45386        -2.80687
H         29.13120        17.54339        -3.28146
O         32.14227        14.17957        -2.80916
H         32.27354        15.11896        -3.09574
O         34.57099         0.33668        -0.34586
H         34.65418         0.83548        -1.18441
O         12.04975         4.26040         2.06488
H         12.52128         3.46640         2.41429
O          5.94926         3.64049        -2.04140
H          6.86609         3.49535        -2.38712
O         13.51992        19.92860         1.79682
H         13.54373        19.19170         2.44127
O         20.82180         3.43998        -2.48764
H         21.62400         2.95784        -2.78180
O         14.29201         1.19561        -2.00559
H         15.08912         0.89903        -2.49121
O         32.19272        16.73601         0.94821
H         31.47211        17.20842         1.41489
O          6.78102        10.30239         1.75806
H          7.43798         9.92983         2.38329
O         18.27497         3.62573         1.23220
H         19.02014         3.12765         1.62827
O         23.21436        11.99143        -2.76665
H         24.04850        11.59943        -3.10446
O         33.25093        16.69715        -2.55457
H         34.13411        16.52692        -2.94493
O          4.47186        17.70280        -1.32553
H          3.50487        17.88456        -1.28150
O         19.44701        14.18430        -2.32786
H         20.26709        13.78874        -2.69826
O         39.86245        17.32431        -1.27329
H         39.16576        17.86019        -1.70907
O          2.91300        12.19782        -1.77541
H          3.67880        12.22542        -2.39333
O         10.93458        12.10873         2.18180
H         11.68768        11.56639         2.50245
O         36.91779        10.41186         1.86426
H         36.13696         9.99393         2.28424
O          8.66973         3.60976        -2.09670
H          9.41702         3.03331        -2.36575
O         14.94971        12.78376         2.03107
H         14.22393        13.32007         2.41676
O         17.24648         4.14359        -2.24041
H         16.50957         4.66273        -2.62399
O         18.45447        12.31649         1.57596
H         19.19079        11.76122         1.92543
O          6.47110        10.14716        -1.86712
H          6.05143        10.79230        -2.47983
O         38.30654        10.29597        -1.53243
H         37.61952        10.83428        -2.00333
O         33.55323         6.07302        -1.84851
H         32.89700         6.61352        -2.33901
O         36.09451        11.84739        -2.20301
H         35.28991        11.43665        -2.59060
O         17.22384        12.60164        -1.89278
H         17.94140        13.17962        -2.26324
H          0.19488         1.48713         0.08083
H          0.12906         3.94720         0.16056
H          2.36130         0.26750        -0.06330
H          0.11698         5.89313         0.11988
H          0.15210         8.31991         0.20908
H          0.25123        10.17299         0.71978
H          0.38311        12.55640         1.17412
H          0.95835        14.09333         2.30949
H          1.22557        16.39934         3.06751
H          2.40238        18.63697         2.93468
H          4.81485         0.29926         0.05958
H          4.47512        19.82177         2.37848
H          7.27095         0.29026        -0.17407
H          6.53686        20.00495         1.22842
H          9.68596         0.29398         0.11023
H          8.71252        20.36339        -0.14154
H         12.12447         0.23868        -0.13326
H         11.08775        20.34077         0.16242
H         14.75413         0.26604        -0.18293
H         13.56858        20.23184        -0.23637
H         17.10428         0.28982        -0.70677
H         16.04775        20.32854         0.35286
H         19.58929         0.25689        -0.59731
H         18.53034        20.30186         0.19191
H         22.05912         0.29777        -0.20917
H         20.99124        20.27231         0.02375
H         24.52199         0.29070        -0.20373
H         23.45000        20.26013        -0.12461
H         26.98904         0.28748        -0.03997
H         25.90797        20.24507        -0.14763
H         29.45066         0.28979         0.19619
H         28.36555        20.21733        -0.19183
H         31.91452         0.30235         0.46168
H         30.78344        20.28368        -0.32867
H         34.22404         0.67369         1.65033
H         33.26995        20.31666        -0.47493
H         36.84443         0.33237         0.94073
H         35.68429        20.30851         0.04758
H         39.30022         0.31891         0.81372
H         38.02710        20.31070         0.74683
H         41.45663         1.54951         0.69905
H         42.68493         3.69275         0.65118
H         42.74311         6.14856         0.69900
H         42.74673         8.05945         1.35399
H         42.76283        10.48605         1.16946
H         42.77496        12.34448         0.95334
H         42.75414        14.77931         1.04263
H         42.47755        16.59344         1.84379
H         40.38726        20.34015         1.43478
H         42.42285        19.05788         2.04227
