         272
 CSIRO Nanostructure Databank - Neutral Graphene Oxide Data Set
C        -10.63330         0.51810         1.54796
C         -9.92411         1.36986         0.50916
C         -8.63747         0.60771         0.14258
C         -7.29238         1.24350         0.12651
C         -6.46397         0.85182        -1.11975
C         -5.08920         1.51626        -1.23239
C         -3.77723         0.82199        -1.49240
C         -2.49116         1.56801        -1.17386
C         -1.20118         0.81071        -1.18503
C          0.08546         1.59878        -1.45994
C          1.35737         0.81995        -1.03398
C          2.53874         1.52251        -0.44353
C          3.65443         0.78339         0.25298
C          5.00142         1.47638         0.23717
C          6.21113         0.59168         0.09380
C          7.52499         1.23010        -0.23602
C          8.80218         0.45189        -0.05678
C         10.10967         1.22254         0.21777
C         11.23395         0.43453         0.77876
C         -9.78424         2.86652         0.76747
C         -8.63086         3.58248         0.86419
C         -7.47467         2.70248         1.29873
C         -5.62833         3.14597         0.76139
C         -4.88685         2.78849        -0.47816
C         -3.80543         3.72538        -0.91744
C         -2.50000         3.08497        -1.29553
C         -1.17698         3.88337        -1.22725
C         -0.01272         2.98099        -0.78949
C          1.20125         3.68420        -0.27500
C          2.52942         2.98289        -0.00106
C          3.79847         3.65432        -0.51180
C          5.08123         2.90459        -0.20237
C          6.38612         3.52489        -0.63860
C          7.71712         2.72602        -0.55307
C          8.73913         3.43933         0.43985
C         10.03676         2.65202         0.47845
C         -8.68429         5.06465         0.86770
C         -7.71331         5.91914         0.43868
C         -6.50735         5.32220        -0.25130
C         -5.11362         5.70421         0.22695
C         -3.83458         5.06210        -0.21886
C         -2.61435         5.95161        -0.51779
C         -1.32211         5.16240        -0.33108
C         -0.08525         5.88757         0.09836
C          1.19828         5.19537        -0.32400
C          2.50224         5.92632        -0.46100
C          3.81073         5.14254        -0.63233
C          5.13139         5.90898        -0.59614
C          6.39760         5.02025        -0.55898
C          7.58856         5.72163         0.17109
C          8.82582         4.88887        -0.01799
C         -7.79353         7.41596         0.32435
C         -6.79062         8.18398         0.85907
C         -4.95048         6.99185         0.92224
C         -3.79416         7.65611         0.99745
C         -2.60238         7.32800         0.20041
C         -1.36463         8.13014         0.46299
C         -0.04312         7.36803         0.50908
C          0.92018         8.30107        -0.28582
C          2.58274         7.32872         0.07546
C          3.40327         8.35538        -0.63901
C          5.31200         6.93911         0.52359
C          6.40918         7.90071         0.15934
C          7.57811         7.23223        -0.10729
C         -6.35764         9.55220         0.52649
C         -5.15674        10.22984         0.60723
C         -3.81713         9.85923         1.09796
C         -2.57742        10.33067         0.77295
C         -1.34251         9.51341         1.21887
C          0.01972        10.19605         1.00790
C          1.14112         9.61379         0.48293
C          2.48392        10.19453         0.63115
C          3.63634         9.57705         0.19097
C          5.00797        10.04491         0.34351
C          6.18387         9.34290         0.21389
C        -10.60314        -0.82559         1.44766
C         -9.83446        -1.56519         0.40218
C         -8.86287        -0.76124        -0.44866
C         -7.66372        -1.47164        -1.01904
C         -6.39818        -0.67766        -1.36172
C         -5.08128        -1.37976        -1.61574
C         -3.76213        -0.67603        -1.41406
C         -2.47098        -1.44033        -1.51332
C         -1.19007        -0.64282        -1.60379
C          0.09727        -1.39567        -1.45555
C          1.21530        -0.66203        -0.74832
C          2.31670        -1.41497        -0.04509
C          3.58217        -0.69555         0.39922
C          4.82331        -1.49386         0.73621
C          6.15824        -0.76280         0.78030
C          7.43646        -1.55373         0.88657
C          8.72198        -1.00562         0.31485
C          9.99698        -1.73237         0.66294
C         11.20692        -0.90756         0.90172
C         -9.60294        -3.01535         0.61851
C         -8.52589        -3.68109         0.13575
C         -7.52795        -2.93242        -0.69380
C         -6.15417        -3.51383        -0.74661
C         -4.95375        -2.84751        -1.29214
C         -3.79005        -3.64722        -1.86998
C         -2.47931        -2.89902        -1.96945
C         -1.17608        -3.68029        -1.89007
C          0.06897        -2.91500        -1.46117
C          1.17203        -3.64017        -0.72892
C          2.34797        -2.92973        -0.13233
C          3.72361        -3.60849        -0.29781
C          4.81018        -2.98955         0.58420
C          6.09973        -3.76598         0.77310
C          7.39079        -3.05540         1.02708
C          8.66319        -3.83628         0.96384
C          9.90617        -3.08154         1.37899
C         -8.35981        -5.19642         0.38468
C         -6.85586        -5.56846         0.53126
C         -6.15527        -4.97951        -0.67550
C         -5.07107        -5.80390        -1.21917
C         -3.85386        -5.24207        -1.96341
C         -2.56229        -5.94898        -1.48643
C         -1.24235        -5.19056        -1.65402
C          0.01449        -5.86595        -1.20208
C          1.30255        -5.07695        -1.13263
C          2.53240        -5.83928        -0.79913
C          3.64747        -5.12539        -0.10051
C          4.88996        -5.89470         0.19282
C          6.20762        -5.14212         0.11777
C          7.38914        -5.93658         0.64755
C          8.62119        -5.19676         0.87486
C         -6.24684        -7.03408         0.61012
C         -7.01327        -8.29491         0.51989
C         -5.09421        -7.08106        -0.44059
C         -3.86022        -7.85249        -0.19213
C         -2.55723        -7.23952        -0.68746
C         -1.40954        -7.48611         0.31712
C          0.00931        -6.95000        -0.10329
C          1.10656        -7.97391        -0.41576
C          2.45243        -7.34945        -0.70473
C          3.72322        -8.09778        -0.38785
C          4.92660        -7.36444         0.02112
C          6.05825        -8.03458         0.47401
C          7.27774        -7.29901         0.77178
C         -6.36073        -9.53442         0.82131
C         -5.02335        -9.74626         1.03045
C         -3.85684        -8.78178         1.04166
C         -2.54667        -9.53650         1.09824
C         -1.37679        -8.95672         0.72501
C         -0.13683        -9.72213         0.76614
C          1.03893        -9.30579         0.22619
C          2.24301       -10.23881         0.20308
C          3.61436        -9.56441         0.05179
C          4.76785       -10.10658         0.78314
C          5.95100        -9.43226         0.83569
O         -1.85608         1.11867         0.06605
O         -0.32063        -0.85828        -2.73816
O          1.31874        -3.50455         0.71666
O          6.58304        -3.60323         2.12972
O          6.47195         4.35509        -1.83521
O          1.65247        -7.94615        -1.75968
O         -7.56505         0.24422         1.13088
O         -5.91192        -0.97852        -2.71695
O          3.29099         0.21313         1.52592
O         -6.37453        -5.68460        -1.93190
O          6.91946        -0.79729         2.02399
O         -2.07366         8.30711        -0.78621
O          2.49188         1.22502        -1.87143
O          0.23128         3.03682         0.62586
O         -4.83001        -8.27572        -1.20505
O         -4.33495         4.79391         1.12828
O         -4.66854         2.30830         0.98842
O          0.76774         8.33732        -1.53795
O          4.43888        -2.37391         1.83477
O          6.70630         0.57207        -1.28085
O         -7.99548        -2.48184        -2.00575
O          6.56413        -4.97664        -1.22987
O         -3.40727         3.62888        -2.29534
O          9.71853         0.73428        -1.12546
O         -1.84659        -6.71738         1.44175
O         -3.10085        -1.20355        -0.21937
O          2.30226        -5.33336        -2.16355
O         -0.41871        -6.00021        -2.56330
O         -2.40524        -7.28092        -2.10236
O          3.73657         4.26571        -1.80958
O         -6.64727         4.66063        -1.26446
O          1.15349        -0.92949         0.68292
O          1.63882         5.73497        -1.60859
O          5.17046         2.53820         1.21638
O          3.96175        -9.19916        -1.31508
O         -3.32421        -3.09601        -3.13115
O         -3.77957         8.70907         1.91823
O         -5.13187        -2.99535         0.17362
O         -7.38988         2.37525         2.45704
O         -5.98727         7.43374         1.75348
O          3.65269         8.30349        -1.83051
O         -4.54125         1.41831        -2.57067
O         -0.88856         5.12243         1.05496
O          4.84296         6.83091         1.64216
O         -0.12658        -3.36939        -2.83321
O          3.93500        -5.52957         1.26401
O        -10.13694        -1.15389        -0.99589
O          9.41086        -1.82581        -0.67058
O          2.23645       -11.05424         1.37826
H          2.21026       -10.47259         2.16559
O         -2.76962         6.20984        -1.92695
H         -2.28776         7.05103        -2.12557
O          0.13302         1.79519        -2.87261
H          1.06995         1.92448        -3.14205
O         -4.01573        -7.92958         2.20038
H         -3.16749        -7.35254         2.18390
O         -8.93783        -5.93009        -0.71005
H         -8.48413        -5.66745        -1.54390
O          0.52299        -6.26601         1.05763
H         -0.26789        -6.15493         1.66469
O          2.66505         3.01491         1.43208
H          1.89539         2.54719         1.82697
O         -1.41846         9.31769         2.63769
H         -0.61966         8.81068         2.90684
O         -6.42585        -4.90196         1.72591
H         -5.66325        -4.30656         1.54584
O          4.11958        -3.31765        -1.65351
H          3.69929        -3.98471        -2.25238
O          2.67341         7.41910         1.43625
H          2.44337         6.58119         1.88607
O         -8.26629        -8.34874         0.17291
H         -8.63094        -7.47088        -0.16307
O          8.25439         3.26604         1.76821
H          7.84967         4.11574         2.08538
O          9.86602        -2.87442         2.80115
H          8.93114        -2.79337         3.08653
O          7.18048         5.61491         1.57729
H          7.55151         6.37448         2.07337
O          8.34733         2.79430        -1.82343
H          8.03580         2.05018        -2.38141
O          0.30468         7.33892         1.91585
H         -0.19485         6.58980         2.31672
O        -10.76100         1.38649        -0.67629
H        -10.87441         0.45631        -0.99519
O         -0.86508         4.33757        -2.54084
H         -1.69197         4.69789        -2.93939
O         -7.23979         1.38611        -2.20751
H         -6.72760         1.24123        -3.03430
O         -3.99848        -5.56335        -3.33783
H         -4.92252        -5.38563        -3.61105
O          5.26655         6.60671        -1.83943
H          5.12094         5.95515        -2.56082
H         12.07788        -1.42486         1.33187
H         12.13622         0.98905         1.07764
H         10.68064         2.96179         1.32412
H          9.28925         4.98954        -1.01715
H          8.50233         7.75576        -0.39721
H          7.10674         9.94658         0.24963
H          5.11781        11.12573         0.53967
H          2.55594        11.13714         1.20093
H          0.12629        11.16206         1.53215
H         -2.44153        11.19841         0.11182
H         -5.18241        11.23011         0.14053
H         -7.14798        10.11789         0.00207
H         -8.56792         7.84285        -0.33335
H         -9.63061         5.49164         1.24204
H        -10.72591         3.41942         0.60891
H        -11.21437         0.99519         2.35111
H        -11.13505        -1.44030         2.19120
H        -10.32217        -3.54717         1.26307
H         -8.92647        -5.48053         1.30449
H         -5.69507        -7.09401         1.60154
H         -7.01884       -10.41690         0.82471
H         -4.74875       -10.79928         1.21379
H         -2.55928       -10.58268         1.44333
H         -0.18456       -10.72434         1.22208
H          2.11635       -10.93508        -0.66784
H          4.66593       -11.09412         1.25611
H          6.81974        -9.89920         1.32372
H          8.14122        -7.87669         1.13918
H          9.55406        -5.77270         0.98628
H         10.82662        -3.67709         1.14993
