         656
 CSIRO Nanostructure Databank - Neutral Graphene Oxide Data Set
C          5.84202        31.71318        -0.40083
C          5.84637        33.07985        -0.37452
C          8.40626        27.51698        -0.71933
C          8.27105        28.78311        -0.20371
C          7.05696        29.54595        -0.28826
C          8.23505        31.67008         0.14077
C          7.04066        30.94269        -0.15188
C          8.26161        33.08028         0.13840
C          7.04480        33.83421        -0.10572
C          8.21442        35.99349         0.19188
C          7.04520        35.23150        -0.10083
C          8.24262        37.39142         0.17785
C         11.02538        23.30420        -1.11004
C         10.93922        24.69500        -0.78267
C          9.75948        25.39222        -0.95452
C         10.85999        27.45468        -0.05581
C          9.75862        26.89039        -0.93217
C         10.75110        28.72520         0.42520
C          9.45042        29.43189         0.41352
C         10.75040        31.63484         0.53757
C          9.44168        30.93681         0.55674
C         10.73439        33.08864         0.42020
C          9.47804        33.76915         0.38150
C         10.72360        35.96812         0.70193
C          9.42700        35.22653         0.57004
C         10.72669        37.41747         0.35752
C          9.44168        38.16187         0.33328
C         10.72003        40.30196         0.40738
C          9.49811        39.55191         0.26655
C         10.79160        41.67124         0.25683
C         13.16583        18.91536        -1.70496
C         12.85615        20.11585        -0.99978
C         12.10694        21.17704        -1.46558
C         13.35829        23.08062        -0.31438
C         12.14821        22.50239        -0.88266
C         13.45146        24.60563        -0.44559
C         12.14550        25.36338        -0.30939
C         13.27642        27.35934         0.63735
C         12.09784        26.68872         0.08637
C         13.23086        28.76271         0.92794
C         11.89328        29.44710         1.10793
C         13.20653        31.56427         0.44906
C         11.91176        30.91257         0.68831
C         13.21226        33.07246         0.26982
C         11.94961        33.80649         0.41183
C         13.18974        35.93781         0.50311
C         12.00049        35.23714         0.53899
C         13.27340        37.39644         0.91491
C         12.01425        38.14266         0.51670
C         13.25891        40.31308         0.74866
C         11.94733        39.58966         0.93039
C         13.24919        41.71264         0.76801
C         12.01263        42.41690         0.47327
C         13.26381        44.53112         0.49731
C         12.04883        43.79622         0.33238
C         13.30460        45.91517         0.28189
C         15.99144        14.83312        -1.89672
C         15.82074        16.15083        -1.37255
C         14.66165        16.86480        -1.79145
C         15.65069        18.75575         0.31699
C         14.07123        17.98862        -1.17399
C         15.77355        20.18090         0.41848
C         14.59062        20.95843         0.23908
C         15.85342        23.10362        -0.02401
C         14.52501        22.36839         0.01985
C         15.75016        24.53322         0.47843
C         14.58395        25.24744         0.32717
C         15.64893        27.30846         1.30588
C         14.47936        26.63839         0.72683
C         15.65332        28.84731         1.47103
C         14.40408        29.51450         1.12355
C         15.66910        31.64288         0.90797
C         14.46193        30.92369         0.87807
C         15.67514        33.07655         0.66640
C         14.49098        33.76686         0.46222
C         15.74696        35.96728         0.26722
C         14.45115        35.22224         0.25756
C         15.78076        37.43093         0.52779
C         14.48365        38.16171         0.27618
C         15.67578        40.24866         1.11569
C         14.50007        39.60227         0.75350
C         15.65355        41.67555         1.46447
C         14.45650        42.43551         1.03130
C         15.67722        44.57454         1.10396
C         14.46479        43.83051         0.88746
C         15.67986        45.97548         0.85919
C         14.50982        46.64672         0.43015
C         15.74002        48.78605         0.14283
C         14.55063        48.06802         0.18385
C         15.77424        50.19045        -0.02727
C         18.30087        10.50413        -1.41298
C         18.31274        11.84198        -1.66556
C         17.09462        12.62271        -2.08817
C         18.30102        14.72435        -1.13521
C         17.12515        14.08142        -1.66650
C         18.19498        16.02678        -0.60567
C         16.88440        16.65124        -0.51561
C         18.57841        18.86369         0.52046
C         16.68343        17.78876         0.31693
C         18.35436        20.27905         0.52940
C         17.05974        20.91119         0.54614
C         18.20115        23.06433         0.97591
C         17.00662        22.31695         0.57026
C         18.21318        24.51928         1.03191
C         17.01368        25.25070         0.72911
C         18.15823        27.45013         1.58256
C         16.98497        26.73027         1.07238
C         18.16053        28.85789         1.54748
C         16.93033        29.57559         1.39432
C         18.17380        31.68248         1.18369
C         16.93154        30.96926         1.17304
C         18.19895        33.09997         0.92232
C         16.93947        33.81031         0.69295
C         18.19547        35.97099         0.31582
C         16.95158        35.17735         0.54777
C         18.22365        37.30873         1.06713
C         16.92632        38.06669         0.87056
C         18.27331        40.23284         1.33177
C         16.93690        39.49693         1.26546
C         18.31926        41.72653         1.42794
C         17.01975        42.45528         1.71206
C         17.97953        44.76746         1.82058
C         16.87185        43.92484         1.53148
C         18.14918        46.05825         1.36408
C         16.87786        46.83957         1.17415
C         18.27033        48.81146         0.55250
C         17.03454        48.00008         0.20867
C         18.24039        50.23574         0.26223
C         16.97150        50.92707        -0.00019
C         18.14195        53.11671        -0.12380
C         16.96276        52.34264        -0.10623
C         18.15077        54.51731        -0.20689
C         20.59027         6.20170        -0.29162
C         20.72088         7.68161        -0.55607
C         19.49942         8.44219        -0.74275
C         20.85821        10.33390        -1.58451
C         19.51256         9.74264        -1.17629
C         20.88109        11.85614        -1.61558
C         19.58146        12.60822        -1.67562
C         20.79444        14.63249        -1.00602
C         19.57313        14.01134        -1.22251
C         20.75996        16.09374        -0.77844
C         19.51784        16.67977        -0.10295
C         20.76386        19.03021        -0.61252
C         19.54951        18.21300        -0.17808
C         20.76981        20.42049        -0.00503
C         19.58930        21.01138         0.39248
C         20.77410        23.23079         0.65784
C         19.56309        22.39030         0.87333
C         20.71328        24.64110         1.12010
C         19.39696        25.19807         1.53418
C         20.67978        27.43519         1.69779
C         19.40201        26.72192         1.78386
C         20.66182        28.84512         1.60598
C         19.41498        29.56316         1.53961
C         20.67111        31.65742         1.30301
C         19.41280        30.97326         1.37856
C         20.67470        33.16490         1.38531
C         19.40545        33.80195         0.88636
C         20.62796        35.90900         0.45767
C         19.45783        35.20779         0.58257
C         20.58916        37.35003         0.01293
C         19.42669        38.12027         0.62146
C         20.66312        40.22977         0.47937
C         19.47519        39.49158         0.80817
C         20.73860        41.61747         0.69883
C         19.57524        42.31885         1.25464
C         20.83708        44.49073         1.12560
C         19.84287        43.68617         1.64118
C         20.83059        45.95967         1.26852
C         19.44279        46.75159         1.38535
C         20.73209        48.86533         0.97946
C         19.42792        48.16538         0.93790
C         20.68823        50.33801         0.62111
C         19.40373        50.96369         0.27650
C         20.64856        53.13643         0.24953
C         19.44729        52.37084        -0.26650
C         20.62640        54.63274         0.15398
C         19.35078        55.29523        -0.21039
C         20.61655        57.39892        -0.49935
C         19.38218        56.65963        -0.46237
C         20.62599        58.77652        -0.72398
C         23.11125         3.38661         0.23576
C         21.90411         4.10009         0.07232
C         23.14968         6.16846        -0.18551
C         21.90888         5.47655        -0.12908
C         23.19108         7.57963        -0.43803
C         21.94512         8.30859        -0.58717
C         23.27744        10.44434        -0.98707
C         21.94917         9.82093        -0.64092
C         23.34249        11.81932        -1.11364
C         22.10442        12.57812        -1.20408
C         23.36819        14.74790        -1.22886
C         22.06785        13.95653        -1.08357
C         23.33911        16.12222        -0.59503
C         22.04592        16.84506        -0.64061
C         23.33074        18.96471        -0.22930
C         21.97548        18.24661        -0.03921
C         23.30107        20.38897         0.27070
C         22.07645        21.19241        -0.11409
C         23.20404        23.12227         1.06731
C         22.06758        22.52071         0.60114
C         23.14984        24.48418         1.67332
C         21.94043        25.31834         1.53778
C         23.15190        27.45663         1.84979
C         21.92025        26.71551         1.72941
C         23.15398        28.84812         1.70303
C         21.90468        29.54863         1.52261
C         23.16969        31.61098         0.88986
C         21.87990        30.95817         1.33137
C         23.13179        33.12657         0.89405
C         21.92809        33.79330         0.83786
C         23.15734        35.96762         0.45331
C         21.90613        35.16608         0.23366
C         23.11321        37.39773         0.25771
C         21.91011        38.06995         0.15288
C         23.13822        40.25384        -0.01525
C         21.83238        39.53409        -0.18450
C         23.13293        41.67197         0.00785
C         21.93440        42.34080         0.40783
C         23.17905        44.55293         0.10454
C         22.12733        43.76771         0.84443
C         23.18216        45.96577         0.22032
C         22.00443        46.70298         0.71568
C         23.23261        48.84017         0.49328
C         21.97548        48.08145         0.70461
C         23.18284        50.25168         0.01704
C         21.89295        50.99874         0.03750
C         23.13705        53.15205        -0.02295
C         21.94176        52.46106         0.08429
C         23.12910        54.59912        -0.10696
C         21.90744        55.31824        -0.09137
C         23.10789        57.40588        -0.54262
C         21.87930        56.70124        -0.37037
C         23.09250        58.81301        -0.76312
C         21.84536        59.50775        -0.83607
C         23.06204        61.59829        -1.17849
C         21.85528        60.90752        -1.04539
C         24.32594         4.04154         0.19220
C         25.61013         6.13999        -0.09268
C         24.37703         5.44741        -0.03142
C         25.65993         7.51577        -0.37748
C         24.42817         8.21901        -0.59519
C         25.83209        10.34635        -1.05516
C         24.48147         9.61990        -1.05301
C         25.80113        11.80846        -0.93688
C         24.61728        12.51754        -1.02002
C         25.73974        14.62021        -0.40836
C         24.60582        13.96903        -0.84274
C         25.75681        16.04254        -0.16178
C         24.48640        16.74078        -0.17254
C         25.74896        18.88394         0.38644
C         24.44530        18.12784         0.42546
C         25.70984        20.22991         0.68011
C         24.46339        20.99927         0.69606
C         25.66645        23.10590         1.32981
C         24.48305        22.42509         1.05124
C         25.72027        24.51878         1.65079
C         24.43699        25.19232         1.98620
C         25.68958        27.41654         2.24797
C         24.39255        26.68976         2.16318
C         25.67522        28.92649         2.11883
C         24.39791        29.63470         1.78280
C         25.62788        31.87190         1.65756
C         24.41068        30.96820         1.47433
C         25.60197        33.07119         0.69972
C         24.34574        33.85425         0.69920
C         25.68508        35.99944         0.61103
C         24.36088        35.26619         0.58256
C         25.57931        37.43683         0.14138
C         24.39045        38.11062         0.09801
C         25.52567        40.29302        -0.42613
C         24.35024        39.56538        -0.09944
C         25.50782        41.68404        -0.64199
C         24.32018        42.39504        -0.33526
C         25.43977        44.55120        -0.88028
C         24.29571        43.85154        -0.41383
C         25.47463        45.94641        -0.70304
C         24.37600        46.64511        -0.14870
C         25.59900        48.89259        -0.48635
C         24.49821        48.10064         0.09093
C         25.62975        50.28873        -0.36998
C         24.42883        51.02786        -0.07512
C         25.61071        53.16168        -0.34966
C         24.39151        52.42356        -0.14683
C         25.59588        54.56596        -0.41939
C         24.35716        55.29290        -0.32789
C         25.58308        57.41691        -0.70272
C         24.34520        56.69927        -0.50701
C         25.55128        58.81147        -0.88195
C         24.32503        59.52506        -0.91751
C         24.28285        60.92843        -1.12010
C         26.90605         8.22804        -0.33687
C         28.19257        10.32426        -0.23729
C         27.01063         9.60588        -0.54204
C         28.27652        11.72942        -0.32221
C         27.11110        12.54114        -0.84061
C         28.24996        14.60796        -0.05092
C         26.96419        13.82089        -0.02137
C         28.23117        16.00446         0.03582
C         26.96359        16.72299         0.06787
C         28.21196        18.84181         0.30397
C         26.99369        18.15273         0.27550
C         28.24135        20.27087         0.54990
C         26.98006        20.91579         1.00207
C         28.19589        23.15843         1.15412
C         26.95684        22.37821         1.32207
C         28.18744        24.50927         1.43519
C         26.93470        25.18767         1.76210
C         28.26162        27.39090         1.78310
C         26.98728        26.63986         2.10365
C         28.14584        28.83638         1.38319
C         26.95797        29.63991         1.83035
C         28.19201        31.79142         1.05514
C         26.96487        31.12702         1.58063
C         28.15924        33.18040         0.53970
C         26.84035        33.76619         0.22989
C         28.09471        35.95951        -0.11341
C         26.75744        35.23361        -0.20919
C         28.08605        37.37723        -0.39935
C         26.88097        38.20046         0.01767
C         27.88898        40.12167        -1.42646
C         26.71589        39.48440        -0.77347
C         27.92458        41.61225        -1.78486
C         26.50221        42.28550        -1.64030
C         27.92761        44.47766        -1.28679
C         26.57329        43.85919        -1.67046
C         27.93569        45.99037        -1.48824
C         26.78452        46.70078        -0.76751
C         28.01329        48.85512        -1.01125
C         26.67723        48.16831        -1.26184
C         28.04057        50.34767        -1.18687
C         26.81894        51.04597        -0.64968
C         28.08940        53.16133        -0.73398
C         26.83125        52.43172        -0.57453
C         28.05222        54.57045        -0.74163
C         26.83286        55.28901        -0.63430
C         26.80419        56.69131        -0.73790
C         29.44229        12.43762        -0.03044
C         30.69374        14.58938        -0.00107
C         29.48135        13.88040        -0.03824
C         30.71085        16.01061         0.02001
C         29.46653        16.71994         0.07212
C         30.67599        18.86104         0.07045
C         29.47047        18.14833         0.13447
C         30.65177        20.35577        -0.11207
C         29.39542        20.99465         0.44327
C         30.69663        23.07097         0.96413
C         29.37938        22.50470         0.46812
C         30.70558        24.53898         1.21395
C         29.41892        25.28169         1.25263
C         30.64174        27.36408         0.66398
C         29.42668        26.64411         1.23281
C         30.68741        28.82829         1.14962
C         29.36199        29.50996         0.84436
C         30.62304        31.69686         0.29674
C         29.35543        30.98014         0.58203
C         30.65478        33.17927         0.61456
C         29.32466        33.85401         0.32199
C         30.56561        35.99729        -0.02417
C         29.28506        35.27373         0.02168
C         30.55252        37.40993        -0.57048
C         29.23216        38.01422        -0.83424
C         30.47845        40.19786        -1.34360
C         29.20450        39.39093        -1.38024
C         30.33215        41.65486        -1.10848
C         29.12699        42.31691        -1.15854
C         30.34087        44.45852        -0.65487
C         29.09223        43.78092        -1.05793
C         30.42073        45.93607        -0.67191
C         29.21921        46.70292        -1.06683
C         30.30561        48.82103        -0.05733
C         29.14263        48.15562        -0.75814
C         30.42422        50.28573        -0.38905
C         29.32329        51.01852        -0.75317
C         29.30617        52.44981        -0.77088
C         31.92099        16.74773        -0.00112
C         33.14453        18.89889        -0.01759
C         31.92674        18.16226         0.00311
C         33.17796        20.30946         0.15845
C         31.94498        21.04008         0.28017
C         33.19841        23.10855         0.74954
C         31.96858        22.38846         0.61998
C         33.22504        24.52774         0.98732
C         31.97910        25.27906         1.08831
C         33.16428        27.44384         1.05350
C         31.93599        26.64604         0.98155
C         33.13589        28.87540         0.65679
C         31.91574        29.57016         0.65410
C         33.10412        31.63704         0.09568
C         31.90678        30.94825         0.34447
C         33.09002        33.07792        -0.36140
C         31.84169        33.86968        -0.00925
C         33.06863        36.00834        -0.16988
C         31.81561        35.21505        -0.15821
C         33.08581        37.41028        -0.64626
C         31.80119        38.01053        -1.20296
C         32.94082        40.21129        -0.92605
C         31.78168        39.52220        -1.05300
C         32.92156        41.69347        -0.85837
C         31.59443        42.38764        -0.87161
C         32.65053        44.39215         0.35164
C         31.49193        43.77443        -0.39838
C         32.73932        45.88338         0.19554
C         31.60767        46.64115        -0.10715
C         31.59131        48.04334        -0.06188
C         34.39697        21.01328         0.27293
C         35.65616        23.13166         0.48874
C         34.43209        22.41135         0.51005
C         35.68530        24.53543         0.62547
C         34.44711        25.21748         0.89455
C         35.68231        27.38449         0.55180
C         34.48790        26.67882         1.02716
C         35.58010        28.78444         0.17085
C         34.33650        29.54751         0.35255
C         35.60463        31.67547         0.09055
C         34.33995        30.94379         0.11334
C         35.56585        33.13833         0.11176
C         34.36990        33.79921        -0.00419
C         35.61772        35.97152        -0.25926
C         34.35777        35.27124        -0.01033
C         35.60407        37.38891        -0.76434
C         34.25973        38.08542        -0.68008
C         35.42973        40.28216        -0.37970
C         34.30053        39.54411        -1.09212
C         35.31215        41.62296        -0.07027
C         34.08547        42.37533        -0.22041
C         33.96848        43.66963         0.20268
C         36.89929        25.28204         0.51536
C         38.14131        27.46636         0.32512
C         36.91095        26.69947         0.43107
C         38.15948        28.84830         0.28157
C         36.89751        29.57399         0.03750
C         38.03619        31.75433         0.72019
C         36.81344        31.02558         0.21183
C         38.02850        33.21984         0.35077
C         36.82350        33.87993         0.17782
C         38.05207        36.07515        -0.01079
C         36.80996        35.31283        -0.06745
C         37.98966        37.48038        -0.00256
C         36.77294        38.19092        -0.23216
C         36.65222        39.57104        -0.11811
C         39.35945        29.65606         0.32650
C         40.52776        31.82936         0.37568
C         39.32838        31.03038         0.41397
C         40.50260        33.19770         0.36195
C         39.26930        33.95230         0.30232
C         39.26413        35.34175         0.15696
O         32.47583        42.34368        -2.09103
O         27.95912        31.72047         2.49761
O         18.92639        22.50790         2.16700
O         24.96807        27.05273         3.46922
O         20.37840        12.37746        -2.90471
O         36.19632        29.07620        -1.13959
O         14.37614        18.18533         0.18373
O         16.18711        41.95872         2.79681
O         13.36746        20.28973         0.31673
O         26.50170        29.46244         3.20764
O         15.51207        27.91952         2.60516
O         18.98384        44.20336         2.60607
O          9.96976        35.65149         1.90114
O         26.09740        32.83418        -0.66524
O         23.70620        24.49998         3.04887
O         21.34762        16.75672        -1.95712
O         20.86019        49.90928         2.00902
O         22.35316        50.36838        -1.20971
O         17.20835        26.32046        -0.32519
O         29.73890        31.31134        -0.79682
O         27.04558        21.35568         2.41015
O         20.50637        53.92601         1.45660
O         19.33482        25.72872         2.88469
O         13.26852        32.16250        -0.89355
O         33.92812        27.22055         2.29121
O         28.40773        28.86437        -0.07344
O         30.69704        37.15042         0.87139
O         20.33056        46.51342         2.51684
O         17.66346        39.65776         2.54694
O         15.11270        35.62662        -1.03513
O         11.56123        37.78275        -0.80903
O         25.26492         9.80454        -2.28721
O         17.68811        18.07311         1.25606
O         27.54864        12.85508        -2.24110
O         30.25685        46.43101        -2.08291
O         33.66975        35.87929         1.18721
O         29.95184        39.65085        -2.60424
O         34.57530        39.51609        -2.48649
O         30.71120        23.55562         2.33371
O         27.95004        27.01459         3.14604
O         24.23973        48.53531         1.49537
O         25.81172        41.88648        -2.86449
O         20.64501        24.30088        -0.34199
O          9.17508        30.06338         1.72464
O         26.75937        13.38291         1.35838
H         26.67646        14.18338         1.91832
O         20.82850        19.25411        -2.03911
H         20.96378        18.37252        -2.47075
O         27.21053        38.62948         1.37865
H         27.19951        37.81667         1.93875
O         35.83322        37.26281        -2.20415
H         35.50626        38.13040        -2.60556
O         30.53708        27.35161        -0.78014
H         29.70302        27.81927        -1.02270
O         11.65876        29.42255         2.54716
H         10.71315        29.68521         2.68090
O         25.50448        32.43683         2.98240
H         25.89946        31.80010         3.61843
O         37.92245        31.70032         2.18922
H         37.17888        32.28445         2.45112
O         16.17727        23.21808        -1.45313
H         15.45198        23.75448        -1.86514
O         23.25911        31.28073        -0.54664
H         22.46535        31.65051        -0.98921
O         14.28781        38.22758        -1.15093
H         14.43692        37.31761        -1.50995
O         11.76321        39.53174         2.39961
H         11.76162        40.45311         2.73843
O         13.85226        24.80115        -1.86817
H         14.08025        25.74961        -1.98115
O         24.19619        17.92921         1.85584
H         24.40628        18.76700         2.32289
O         21.66382        18.16241         1.36065
H         22.43916        17.77217         1.83559
O         26.18280        36.03121         1.98313
H         25.42491        36.19069         2.58464
O         21.55946        39.65996        -1.62972
H         20.97722        38.89184        -1.87569
O         33.08058        33.03141        -1.82927
H         33.82568        32.46436        -2.12178
O         30.76304        28.81844         2.59540
H         31.60665        28.39943         2.87073
O         21.57597        10.30419         0.68662
H         22.19280         9.91274         1.33963
O         23.63837        19.01566        -1.64164
H         23.24133        19.84626        -1.99946
O         26.70325        13.89008        -2.78020
H         25.95598        13.39483        -3.19886
O         18.11736        36.30761        -1.09652
H         17.92006        35.49162        -1.60149
O         13.44969        37.39912         2.34778
H         12.90720        38.13293         2.72912
O         10.13668        27.28897        -2.31583
H         10.93047        26.76647        -2.56093
O         22.72640        43.62480         2.20236
H         22.70205        44.50925         2.62916
O         22.25410        21.48968        -1.55652
H         21.53783        21.01476        -2.04622
O         21.14941         9.85446        -2.91092
H         20.78572        10.51957        -3.53925
O         28.21762        41.66008        -3.20096
H         28.18299        42.59801        -3.48611
O         18.37346        37.01433         2.47560
H         18.23380        37.86586         2.95887
O         27.96442        50.52900        -2.64152
H         27.24625        49.92502        -2.95895
O         27.22698        46.76889         0.62517
H         26.49528        47.14057         1.16535
O         26.28569        48.27027        -2.65117
H         26.76592        47.55029        -3.14037
O         30.57274        20.57848        -1.59052
H         29.94255        19.91805        -1.95264
O         27.83843        46.21559        -2.91514
H         28.74718        46.08248        -3.27413
O         31.78426        37.66926        -2.60480
H         32.45452        38.23085        -3.05459
O         26.34865        35.27787        -1.58903
H         26.20782        34.34933        -1.88649
O         19.69700        52.25990        -1.70705
H         18.94257        51.78035        -2.10913
O         23.47189        14.98301        -2.67428
H         22.72919        15.58898        -2.90789
O         17.26931        47.43340        -1.11111
H         17.23920        48.16145        -1.76602
O         32.27725        44.19519         1.78280
H         33.04214        44.48073         2.32726
O         30.88432        33.24382         2.05187
H         30.96874        34.18657         2.31030
O         20.38626        37.29951        -1.45332
H         20.90212        36.51564        -1.76980
O         21.89161        34.93116        -1.26707
H         22.80322        34.66274        -1.52077
O         19.67441        16.26283         1.27785
H         18.98594        16.73512         1.80068
O         29.92122        48.79862         1.38620
H         29.44368        47.95670         1.55472
O         15.88679        12.00542        -1.63427
H         15.83380        12.10754        -0.66223
O         29.26656        22.91240        -0.93864
H         29.79382        22.26300        -1.47230
O         20.71444        33.46904         2.83207
H         19.86955        33.16089         3.22410
O         26.90214        39.37371        -2.22597
H         26.06443        40.94331        -3.03778
O         16.61625        47.45652         2.47630
H         16.63109        46.75347         3.15966
O         19.80840         5.58075        -1.32777
H         20.25707         5.74279        -2.18301
O         26.34685        44.25998        -3.03921
H         25.81809        43.54112        -3.46354
H          4.90967        31.17156        -0.61821
H          4.91502        33.63387        -0.56389
H          7.54169        27.02708        -1.19348
H          6.13953        29.03367        -0.61560
H          6.11106        35.76531        -0.33401
H          7.30111        37.93205        -0.00731
H         10.14353        22.83910        -1.57596
H          8.86467        24.86618        -1.32043
H          8.56687        40.11716         0.10365
H          9.89710        42.23350        -0.05310
H         12.79607        18.80083        -2.73305
H         11.46658        21.03906        -2.34978
H         11.13169        44.34266         0.06633
H         12.38872        46.44080        -0.02630
H         15.14677        14.36952        -2.42744
H         14.16268        16.47677        -2.69372
H         13.59664        48.59555         0.02756
H         14.82168        50.73205        -0.13770
H         17.33439         9.97562        -1.38036
H         17.05946        12.58914        -3.21487
H         15.98878        52.85490        -0.14748
H         17.18870        55.04798        -0.28792
H         19.99575         6.07317         0.65693
H         18.54192         7.93267        -0.55468
H         18.44559        57.19731        -0.67563
H         19.67207        59.31599        -0.82363
H         23.07720         2.30018         0.39786
H         20.94595         3.56241         0.09725
H         23.04785        62.68577        -1.33752
H         20.90125        61.45095        -1.10285
H         25.26560         3.48444         0.31651
H         26.54657         5.58679         0.07297
H         26.49533        59.35949        -1.02134
H         25.22413        61.48485        -1.23451
H         27.80360         7.67145        -0.02549
H         29.06458         9.76584         0.13800
H         28.99082        55.13237        -0.86398
H         27.74610        57.23889        -0.89392
H         30.36521        11.88831         0.21150
H         31.64680        14.04042        -0.01217
H         31.36060        50.80208        -0.12249
H         30.25463        53.00406        -0.69255
H         32.87843        16.20707        -0.03573
H         34.09546        18.34962        -0.08354
H         33.65476        46.39271         0.53705
H         32.49659        48.56749         0.28380
H         35.34468        20.46820         0.15033
H         36.59307        22.58742         0.29843
H         36.16741        42.14206         0.39400
H         34.84517        44.16251         0.65540
H         37.84643        24.73236         0.41006
H         39.09177        26.91718         0.40527
H         38.90318        38.05227         0.22560
H         37.52737        40.15607         0.21274
H         40.33107        29.14312         0.24650
H         41.49483        31.30530         0.33313
H         41.44989        33.75620         0.32690
H         40.22202        35.88424         0.15496
