         260
 CSIRO Nanostructure Databank - Neutral Graphene Oxide Data Set
C         30.99999        31.44947        -1.42019
C         30.91804        32.67419        -1.34630
C         30.40680        35.90431        -0.71116
C         30.37923        37.10766        -0.41714
C         30.27099        40.28019        -0.41639
C         30.14893        41.54080        -0.43857
C         32.99211        28.69672         0.15531
C         32.09044        29.22361        -0.51154
C         33.12695        31.46049        -0.20003
C         32.11656        30.59940        -1.00950
C         33.03228        32.95630        -0.14991
C         31.89025        33.66161        -0.87105
C         32.65295        35.88621         0.21400
C         31.65279        35.10922        -0.63350
C         32.64756        37.37705         0.05656
C         31.46486        38.03980        -0.18868
C         32.62220        40.24030        -0.37323
C         31.42490        39.47273        -0.34470
C         32.54525        41.71830        -0.56717
C         31.20659        42.44281        -0.43897
C         32.46505        44.49180        -0.10276
C         31.43545        43.82972        -0.36974
C         35.36375        27.24455         1.14845
C         35.13957        28.62797         1.55802
C         33.87827        29.31870         1.15363
C         35.15324        31.55123         1.49424
C         33.92660        30.81857         0.91829
C         35.15928        33.06531         1.20262
C         33.99138        33.68226         0.50366
C         35.14209        35.96882         0.90902
C         33.88167        35.16317         0.67185
C         35.10560        37.45432         0.68397
C         33.97059        38.07875        -0.12794
C         35.07750        40.31858         0.01598
C         33.89501        39.60574        -0.09426
C         35.13830        41.77039        -0.29864
C         33.83215        42.51973        -0.41733
C         35.13673        44.70827         0.26093
C         33.79977        43.94588         0.09498
C         35.27229        46.16014         0.16826
C         37.64477        27.27422         0.42540
C         36.40393        26.63167         0.88296
C         37.73258        28.68249         0.96532
C         36.49236        29.40777         1.36754
C         37.72321        31.58639         1.27005
C         36.45598        30.85363         1.12746
C         37.76229        33.07813         1.11060
C         36.47880        33.84478         1.22513
C         37.66142        35.98890         0.68682
C         36.45966        35.27904         0.84627
C         37.66356        37.39151         0.47576
C         36.42061        38.17893         0.60915
C         37.62826        40.36011        -0.10198
C         36.37518        39.66191         0.36267
C         37.69289        41.84571         0.24602
C         36.41852        42.54947        -0.18900
C         37.63165        44.71338        -0.24885
C         36.42530        44.03267        -0.05140
C         37.67487        46.17082        -0.31973
C         36.35207        46.67073        -0.18946
C         40.04371        24.49346        -0.10797
C         39.01000        25.15981        -0.23516
C         40.21291        27.33935        -0.15866
C         38.82974        26.60656        -0.15415
C         40.20614        28.45956         0.93246
C         38.93819        29.31854         0.94419
C         40.29464        31.48872         0.89890
C         39.02276        30.78216         1.23792
C         40.20049        32.95195         0.43793
C         38.93142        33.73050         0.86818
C         40.16087        35.91931         0.34106
C         38.97372        35.26085         1.05765
C         40.21915        37.41957         0.35711
C         38.92198        38.16449         0.35587
C         40.21230        40.33072        -0.26401
C         38.89651        39.57664        -0.18715
C         40.20055        41.83801        -0.36382
C         38.91309        42.59193        -0.25551
C         40.14817        44.70462        -0.73494
C         38.88939        43.95562        -0.38400
C         40.18373        46.17146        -0.39453
C         38.86694        46.89969        -0.41195
C         40.16281        48.95179        -0.29267
C         39.08502        48.27657        -0.36244
C         42.64459        24.38228        -0.22470
C         41.39107        24.99736        -0.10832
C         42.69710        27.10467        -0.01426
C         41.45127        26.43084         0.01123
C         42.75289        28.54927         0.38884
C         41.51404        29.28113         0.85907
C         42.77448        31.49064         0.65179
C         41.45630        30.78306         0.75782
C         42.78035        33.01202         0.64686
C         41.46277        33.78481         0.81718
C         42.70463        35.92447        -0.39086
C         41.42286        35.15915         0.08468
C         42.74092        37.40503         0.01074
C         41.43905        38.12937        -0.24253
C         42.67057        40.33237         0.34714
C         41.42077        39.59913         0.14416
C         42.70517        41.84675         0.17395
C         41.40749        42.67058         0.07233
C         42.78583        44.74524        -0.74493
C         41.46729        43.98635        -0.70891
C         42.79400        46.29173        -0.78885
C         41.48358        46.92898        -0.28647
C         42.76350        48.97859        -0.03404
C         41.45850        48.47531        -0.23111
C         43.70691        25.05289        -0.39020
C         45.04322        27.16204        -1.01297
C         43.92117        26.43021        -0.32599
C         45.23057        28.58787        -0.47242
C         44.04507        29.27947         0.11191
C         45.25671        31.51659        -0.22693
C         44.05306        30.77539         0.26722
C         45.18368        33.01876        -0.43497
C         44.03256        33.73549         0.26592
C         45.26352        35.97305        -0.03559
C         43.97905        35.23654         0.10775
C         45.20298        37.43680        -0.34462
C         43.91567        38.09004         0.05503
C         45.26346        40.27400         0.33474
C         43.96258        39.53982         0.36571
C         45.28533        41.73032        -0.03143
C         44.00863        42.48173        -0.25865
C         45.34059        44.71431        -0.16340
C         44.05791        43.98281        -0.49827
C         45.20876        46.18546         0.14534
C         44.05852        46.89146        -0.08319
C         43.78917        48.26651         0.13183
C         47.48075        27.26221        -1.17404
C         46.45243        26.61335        -0.97933
C         47.67484        28.71178        -1.36361
C         46.39737        29.42112        -0.95973
C         47.69876        31.58881        -0.73245
C         46.41015        30.87386        -0.61181
C         47.76212        32.94517        -0.56985
C         46.53214        33.70587        -0.21093
C         47.80193        35.93519        -0.58575
C         46.56344        35.20695        -0.13226
C         47.81363        37.44082        -0.53498
C         46.50436        38.18530        -0.41021
C         47.71169        40.26797         0.21564
C         46.54824        39.59167         0.02424
C         47.70370        41.71233         0.50690
C         46.55203        42.44241         0.27748
C         47.65508        44.57454         1.13290
C         46.56675        43.92912         0.27687
C         47.52537        46.04032         1.00460
C         46.47103        46.60339         0.67339
C         50.24042        28.74909        -0.93895
C         48.99318        29.45563        -1.43800
C         50.28730        31.49723        -0.51319
C         48.94805        30.72505        -0.52261
C         50.23410        32.90406         0.11143
C         49.06976        33.67770        -0.49837
C         50.27537        35.92264         0.10803
C         49.10289        35.17320        -0.48090
C         50.33776        37.42373        -0.21990
C         49.05597        38.14903        -0.24521
C         50.11789        40.08221         0.89192
C         49.05289        39.65200        -0.13507
C         49.93582        41.44066         1.44472
C         48.90307        42.30098         1.09046
C         50.19446        44.27246         1.80492
C         48.85954        43.74847         1.50871
C         51.26724        29.25026        -0.47409
C         52.57472        31.48038         0.34094
C         51.57301        30.68034        -0.37773
C         52.57773        32.69479         0.57528
C         51.60358        33.70807        -0.02971
C         52.64463        36.05444         0.51160
C         51.50518        35.12375         0.50847
C         52.65621        37.29324         0.53031
C         51.66708        38.19340        -0.09171
C         52.64831        40.41965         0.88335
C         51.75131        39.71032        -0.03541
C         52.71581        41.65014         1.20514
C         51.85922        42.50865         1.88206
C         51.34789        43.80611         1.64517
O         45.66840        37.95703        -1.61029
O         39.76234        38.03466         1.59256
O         43.60124        44.26162        -1.85758
O         50.80399        41.74263         2.53475
O         44.69986        41.84994        -1.38105
O         40.91049        46.33882         0.90384
O         45.10356        28.67965         0.95940
O         36.48835        39.17362         1.72957
O         47.77731        44.04507         2.45404
O         37.87150        27.24424        -1.03044
O         35.88296        29.00116         2.69329
O         33.27024        42.28457        -1.73171
O         42.45262        28.74101         1.82879
O         38.08208        39.84030        -1.37069
O         46.76760        34.39385         1.05766
O         51.24613        37.72031        -1.38835
O         44.71945        39.83882         1.60941
O         49.39714        34.42433        -1.70296
O         40.38584        41.06058        -1.56252
O         42.71717        35.94913        -1.79452
O         43.72301        31.04757         1.67089
O         50.52102        35.49732         1.49218
O         34.41608        44.12777         1.37858
O         40.39576        35.31809        -0.96060
O         47.76622        36.65374        -1.83558
O         34.90151        36.93011         2.00881
O         40.75128        44.17289        -1.95564
O         32.26994        34.66152        -1.85977
O         33.14952        30.21893         2.00307
O         46.45275        44.46148        -1.08538
O         43.77274        33.42958         1.64933
O         32.77666        35.46798         1.60134
O         35.61668        33.73328         2.41328
O         51.20723        31.33686        -1.63185
O         42.72295        41.27042         1.51125
O         33.38561        30.95819        -1.57043
O         38.45102        31.16822         2.51802
O         35.96510        42.07588        -1.49492
O         46.74401        29.19143        -2.37106
O         44.60170        35.83787         1.27387
O         51.95769        33.87141        -1.37227
H         51.94151        32.99044        -1.82370
O         49.38084        40.22938        -1.42887
H         48.71004        39.92019        -2.07485
O         40.36617        27.96799        -1.44081
H         39.49053        27.96117        -1.89282
O         49.92397        32.73317         1.50503
H         50.75192        32.52089         1.99002
O         41.30639        38.12532        -1.67395
H         41.77144        37.28628        -2.02243
O         44.87904        33.18560        -1.84753
H         45.59505        32.78816        -2.38760
O         50.20253        39.16035         1.94793
H         50.57630        39.62299         2.73123
O         35.05417        31.39033         2.91636
H         35.60836        32.08540         3.34203
O         40.12266        32.76603        -0.99309
H         40.10421        33.65919        -1.42285
O         48.77435        30.22685         0.82043
H         48.82432        30.99122         1.44187
O         51.83092        40.25156        -1.28417
H         51.54218        39.57463        -1.94140
O         42.87826        46.68530        -2.15924
H         43.42401        46.01549        -2.63523
O         34.37295        37.75337        -1.50081
H         33.77405        38.21157        -2.12900
O         40.16006        27.77613         2.19665
H         41.04285        27.88433         2.62894
O         41.11252        43.14828         1.40956
H         41.42959        42.46289         2.04755
O         37.77881        41.86265         1.69150
H         37.87228        42.78875         1.99949
O         44.65734        27.27597        -2.38105
H         44.55584        26.37925        -2.76277
O         49.22047        29.88081        -2.76027
H         48.95768        29.17554        -3.38657
O         39.09563        35.47175         2.47473
H         39.22514        36.43748         2.62825
O         41.33772        34.06663         2.21666
H         42.24123        34.07827         2.61131
