         252
 CSIRO Nanostructure Databank - Neutral Graphene Oxide Data Set
C         30.41300        32.05019         0.69987
C         30.49957        33.27229         0.51118
C         30.62696        36.58168         0.87318
C         30.64424        37.69940         1.39222
C         30.67721        40.61361         0.32941
C         30.40603        41.74139        -0.27819
C         32.60333        28.92661         0.73148
C         31.64542        29.71778         0.80852
C         32.79849        31.94326         1.15722
C         31.60535        31.16661         0.43582
C         32.84540        33.31364         1.07147
C         31.67189        34.14181         0.59351
C         32.94558        36.23242         1.46242
C         31.72113        35.62322         0.72981
C         33.07205        37.76344         1.36947
C         31.77604        38.67170         1.57148
C         32.82623        40.07237        -0.47203
C         31.69057        39.77293         0.55267
C         32.74530        41.51965        -1.07929
C         31.45181        42.35873        -0.91402
C         32.76172        44.22876        -1.65443
C         31.67137        43.67140        -1.41880
C         35.45748        27.53120        -0.15896
C         35.16603        28.71132         0.59990
C         33.96113        29.01741         1.16798
C         35.28596        31.77291         1.30263
C         34.03301        31.26026         1.55320
C         35.40638        33.24727         1.30951
C         34.11088        34.03623         1.34708
C         35.37215        36.07641         0.60734
C         34.18425        35.48264         1.05617
C         35.39545        37.46156         0.30303
C         34.30166        38.35939         0.73263
C         35.36271        40.26354        -0.61864
C         34.19776        39.82406         0.25222
C         35.34571        41.56188        -1.12687
C         34.04516        42.23633        -1.40218
C         35.28342        44.40149        -1.69781
C         34.09442        43.72365        -1.63379
C         35.53609        45.80538        -1.85913
C         37.85598        27.30461         0.23076
C         36.53782        26.90796        -0.08881
C         37.78615        28.61958         1.00767
C         36.45682        29.37440         1.12702
C         37.83542        31.63986         1.15715
C         36.51702        30.91220         1.36782
C         37.95074        33.20319         1.08788
C         36.62940        33.93649         0.85386
C         37.84860        35.94171         0.07714
C         36.59958        35.25772         0.46466
C         37.83558        37.30409        -0.27015
C         36.50782        37.99046        -0.55913
C         37.80577        40.02924        -1.30830
C         36.65856        39.53278        -0.40752
C         37.82975        41.55034        -1.39296
C         36.55111        42.28326        -1.36953
C         37.77814        44.43727        -1.42839
C         36.58143        43.70883        -1.53251
C         37.95788        45.89438        -1.88304
C         36.56699        46.48362        -1.72705
C         40.25940        24.65332        -0.63315
C         39.13535        25.29416        -0.57567
C         40.28531        27.39413         0.01238
C         39.03599        26.68262        -0.15240
C         40.38987        28.62345         0.85916
C         39.12129        29.37394         1.33714
C         40.33470        31.55599         0.44934
C         39.05897        30.82371         0.76453
C         40.34893        33.04265         0.32888
C         39.00910        33.70080         0.09127
C         40.30400        35.89917        -0.12409
C         39.07218        35.21917         0.07640
C         40.30946        37.28992        -0.35654
C         39.07188        38.01041        -0.48585
C         40.38150        40.12603        -1.07527
C         39.09279        39.37547        -0.83924
C         40.25466        41.56046        -0.60110
C         39.08857        42.31959        -1.14555
C         40.15639        44.53658        -0.35498
C         38.95489        43.77346        -0.82463
C         40.21359        46.01362        -0.57606
C         39.08751        46.63029        -1.20130
C         40.27298        48.73560        -0.91370
C         39.31395        48.00170        -1.29551
C         42.56011        24.65028        -0.95654
C         41.38817        23.97428        -0.95142
C         42.76699        27.34161        -0.21598
C         41.39473        27.01760        -0.73814
C         42.76412        28.86797        -0.24732
C         41.65862        29.40035         0.68432
C         42.84148        31.53783         0.20552
C         41.64586        30.90326         0.89148
C         42.81971        33.01687         0.10610
C         41.52632        33.73925         0.27326
C         42.78533        35.83316         0.00980
C         41.56766        35.18086         0.03977
C         42.87543        37.22272        -0.47067
C         41.58902        37.97423        -0.65753
C         42.78728        40.14688        -0.30483
C         41.63796        39.45575        -0.57103
C         42.73690        41.57564         0.11986
C         41.44158        42.30979        -0.10225
C         42.70267        44.55678         0.10927
C         41.47169        43.80067        -0.27246
C         42.47380        45.98624         0.59594
C         41.36022        46.73950        -0.15963
C         42.65327        48.78079         0.11256
C         41.42577        48.17339        -0.33585
C         43.69108        25.24692        -1.18626
C         45.14452        27.29766        -0.86467
C         43.92855        26.64461        -0.90869
C         45.34420        28.61760        -0.00095
C         44.10902        29.47264         0.02325
C         45.37456        31.57618         0.17171
C         44.14898        30.82780         0.21884
C         45.32504        33.00945         0.27780
C         44.10222        33.70143         0.27254
C         45.33206        35.90147         0.55257
C         44.03367        35.15339         0.44321
C         45.41915        37.31756         0.07892
C         44.17313        37.99099        -0.38180
C         45.38324        40.25321         0.07115
C         44.13374        39.50055        -0.34610
C         45.29563        41.68314         0.39035
C         43.98807        42.34066         0.48032
C         45.03228        44.52215         0.98666
C         43.93170        43.83244         0.56437
C         45.00402        46.00601         0.97610
C         43.83760        46.70613         0.68118
C         43.62804        48.07596         0.47440
C         47.57273        27.44226        -1.15110
C         46.44831        26.90473        -1.24227
C         47.78321        28.81504        -0.74104
C         46.60574        29.44133        -0.28363
C         47.79455        31.63537        -0.19988
C         46.59866        30.87664        -0.07641
C         47.78649        33.05337        -0.01658
C         46.57409        33.74746         0.28613
C         47.80102        35.89630         0.42173
C         46.59251        35.14848         0.43361
C         47.79878        37.33025         0.66842
C         46.63816        38.07974         0.47436
C         47.73307        40.24389         0.92422
C         46.61710        39.52107         0.49068
C         47.74094        41.67861         1.00715
C         46.54649        42.49630         0.49709
C         47.56180        44.54711         1.51880
C         46.26515        43.71604         1.43574
C         47.25158        45.85640         1.41142
C         46.24791        46.64649         1.26227
C         50.26763        29.11273        -1.29113
C         49.02560        29.51076        -0.82582
C         50.32335        31.79354        -0.88290
C         49.07811        30.94522        -0.43495
C         50.04984        33.25795        -1.06416
C         48.95738        33.84136        -0.23649
C         50.33239        35.88192        -0.02220
C         48.98640        35.20754         0.06191
C         50.35124        37.35052         0.47622
C         49.07883        38.02748         0.96632
C         50.17470        40.29787         1.77077
C         48.90047        39.45713         1.52592
C         49.82234        41.58545         2.32491
C         48.78425        42.34450         1.66760
C         49.95224        44.48089         2.25830
C         48.89668        43.87951         1.39780
C         51.30583        29.75860        -1.66567
C         52.24038        32.13782        -2.27016
C         51.43891        31.13566        -1.64629
C         52.17800        33.38207        -2.23243
C         51.01141        34.18041        -1.80642
C         51.69120        36.70187        -1.72768
C         50.98693        35.60627        -1.41955
C         52.04527        37.84355        -1.19439
C         51.55373        38.14654         0.05395
C         52.44629        40.75108         2.40831
C         51.54695        39.91871         1.70817
C         52.54891        42.00824         2.57632
C         51.58494        42.87241         3.07640
C         51.10179        44.07925         2.53110
O         39.15266        44.10533         0.60869
O         38.70738        42.00558        -2.50608
O         41.42662        28.64536         1.89701
O         37.37864        31.25300         2.49509
O         42.40134        44.27595        -1.29732
O         33.25548        41.51497        -2.43998
O         49.82240        33.66970        -2.47362
O         44.99506        40.06719        -1.38888
O         31.97807        35.01166        -0.53842
O         43.13216        41.68658         1.53447
O         42.64728        32.12500        -1.11949
O         45.12998        37.45860        -1.35531
O         34.01199        30.00618         2.17417
O         42.28309        37.39378        -1.81973
O         36.96897        28.55778         2.22313
O         50.01275        37.32955         1.89090
O         39.54233        30.89209        -0.60337
O         34.83335        33.74261         2.59590
O         34.13471        38.25195         2.22440
O         44.54217        35.67156         1.75772
O         52.16522        39.03575         0.86988
O         40.42256        41.79555         0.81761
O         50.15353        31.33802         0.47944
O         50.39342        42.07641         3.50249
O         38.53864        33.29620        -1.22163
H         39.28456        33.35121        -1.85512
O         46.01453        43.15177         2.72570
H         45.66771        43.84422         3.32542
O         51.21324        35.17140         0.87743
H         50.99949        35.46307         1.79181
O         42.90599        26.89309         1.15526
H         42.84047        25.91316         1.15779
O         34.24899        40.68004         1.41556
H         33.92705        40.15271         2.18960
O         41.30546        26.55345        -1.98970
H         40.36944        26.46163        -2.26260
O         38.29280        45.88247        -3.27164
H         37.56449        45.45629        -3.77021
O         45.49598        28.07712         1.33977
H         44.63689        27.64970         1.58825
O         42.39557        29.21996        -1.60725
H         42.47829        30.19308        -1.73089
O         39.25712        29.47502         2.75222
H         38.35359        29.41281         3.14871
O         46.86512        43.06855        -0.81446
H         46.71826        42.37724        -1.49639
O         49.31634        43.99902         0.02985
H         48.54220        43.78038        -0.54929
O         31.92051        31.24177        -0.94022
H         31.20723        30.81823        -1.46079
O         32.70042        35.93149         2.86126
H         33.51971        36.14081         3.36019
O         36.10516        37.63267        -1.90472
H         36.66706        38.13479        -2.54446
O         31.82105        39.24365         2.86034
H         31.80995        38.52560         3.52685
O         40.57870        40.18348        -2.52455
H         40.92636        39.31256        -2.81769
O         38.40509        33.62406         2.38476
H         37.88002        33.13371         3.05799
O         37.60753        39.59882        -2.68437
H         38.26868        40.10041        -3.21889
O         37.07937        39.78649         0.95848
H         36.31699        40.14575         1.46716
O         48.42273        39.18902         2.87819
H         49.04800        38.55408         3.29291
O         32.71324        39.13557        -1.53392
H         32.88867        39.61259        -2.37950
O         42.02750        45.83516         1.96469
H         41.79354        46.71812         2.32093
O         41.78899        31.18393         2.29520
H         41.42362        30.40262         2.78112
