         244
 CSIRO Nanostructure Databank - Neutral Graphene Oxide Data Set
C          1.11038         2.07978         0.20501
C          1.08322         3.41239        -0.11896
C          2.32794         1.35818         0.30523
C          2.35471         4.11793        -0.51391
C          1.18041         6.36641        -0.59474
C          1.17922         7.77771        -0.60967
C          2.33930         5.63356        -0.37885
C          2.36066         8.51112        -0.47823
C          1.15896        10.74566        -0.20924
C          1.17910        12.12386        -0.14197
C          2.37776         9.98330        -0.35258
C          2.38937        12.86399        -0.02270
C          1.28318        15.10489        -0.13159
C          1.34720        16.48781        -0.07510
C          2.43957        14.27401         0.06517
C          2.52788        17.16742         0.30612
C          2.62217        18.56946         0.38530
C          3.56242         2.05372         0.31360
C          3.53920         3.46069         0.15256
C          4.81773         1.34290         0.40543
C          4.72753         4.23927         0.41829
C          3.57318         6.35257        -0.20023
C          3.58586         7.79062        -0.31673
C          4.75983         5.67668         0.14394
C          4.83090         8.49014        -0.30420
C          3.57978        10.66109        -0.32647
C          3.64499        12.06370         0.23863
C          4.84032         9.95080        -0.73677
C          4.92438        12.81528        -0.04358
C          3.69750        14.92967         0.33005
C          3.66865        16.34446         0.84093
C          4.91567        14.24642         0.24044
C          4.99267        17.05681         0.81838
C          3.80740        19.20756         0.74928
C          5.02193        18.48152         0.94328
C          6.03471         1.99213         0.30301
C          6.06888         3.46046         0.44252
C          7.31363         1.33990         0.26425
C          7.25851         4.18914        -0.14058
C          6.01151         6.41385         0.32912
C          6.03050         7.83502        -0.03480
C          7.33526         5.64914         0.26621
C          7.29660         8.46631        -0.33168
C          6.10582        10.63192        -0.20142
C          6.09716        12.15377        -0.32874
C          7.29096         9.81556        -0.69152
C          7.35035        12.90197        -0.28677
C          6.14559        14.92847         0.52513
C          6.17868        16.30388         0.82355
C          7.43340        14.14424         0.56408
C          7.46209        16.96270         1.28541
C          6.26174        19.15800         1.11394
C          7.47894        18.47104         1.19303
C          8.51945         2.03155         0.20868
C          8.56981         3.45423         0.05057
C          9.79396         1.24341         0.43173
C          9.75962         4.17503        -0.15078
C          8.55804         6.35948        -0.16676
C          8.51834         7.71180        -0.44638
C          9.78425         5.60331        -0.26711
C          9.74816         8.34393        -1.06575
C          8.46917        10.35592        -1.28670
C          8.45891        12.49953        -0.98329
C          9.73097         9.85176        -1.07539
C          9.82579        12.91458        -0.74721
C          8.60525        15.00617         0.10536
C          8.71406        16.35767         0.70141
C          9.85554        14.34583        -0.40455
C          9.89713        17.03175         0.71272
C          8.72589        19.13243         1.23751
C          9.95737        18.45305         1.05151
C         11.05433         1.94056        -0.05737
C         11.02756         3.44174        -0.35388
C         12.34422         1.37970         0.31600
C         12.29814         4.18802        -0.36726
C         11.02112         6.29897        -0.42031
C         11.03466         7.73373        -0.61267
C         12.25021         5.58323        -0.42452
C         12.19804         8.50179        -0.59304
C         10.99706        10.65840        -1.36588
C         10.97009        12.14126        -0.89543
C         12.23405         9.91477        -0.84600
C         12.25265        12.79491        -0.66373
C         11.14438        14.97234        -0.16904
C         11.20104        16.28607         0.56451
C         12.29206        14.22950        -0.36044
C         12.33278        17.14854         0.07705
C         11.20127        19.12639         1.04605
C         12.41095        18.52261         0.61656
C         13.53530         2.08393         0.13864
C         13.54472         3.48059        -0.25606
C         14.78360         1.45138         0.42395
C         14.77737         4.17795        -0.28745
C         13.45823         6.38264        -0.84913
C         13.45662         7.76668        -0.14941
C         14.78115         5.60795        -0.72848
C         14.72953         8.54394        -0.39037
C         13.43854        10.62492        -0.69767
C         13.44433        12.06210        -0.63077
C         14.71802         9.90925        -0.54910
C         14.71458        12.71909        -0.11045
C         13.56643        14.91650        -0.26518
C         13.59256        16.39563        -0.27855
C         14.75052        14.21245        -0.27919
C         14.86838        17.06783        -0.00804
C         13.66025        19.15854         0.62184
C         14.87636        18.46880         0.34886
C         15.96965         2.16339         0.55032
C         15.95252         3.59599         0.27733
C         17.20196         1.40077         0.77186
C         17.12998         4.40389         0.46360
C         16.05872         6.37470        -0.65150
C         16.01352         7.80387        -0.11818
C         17.36775         5.62166        -0.39657
C         17.26571         8.56418        -0.44967
C         15.97483        10.65402        -0.65051
C         15.98509        12.04137        -0.55744
C         17.24537         9.94180        -0.67889
C         17.19343        12.79556        -0.70629
C         16.00657        14.90592        -0.28963
C         16.03605        16.31204        -0.03731
C         17.20622        14.18170        -0.56150
C         17.29777        16.90805         0.53346
C         16.12838        19.12440         0.47069
C         17.34712        18.42341         0.43209
C         18.25755         1.89291         1.49227
C         18.18631         4.02946         1.27232
C         19.64781         1.49187         1.56610
C         19.51296         4.56840         1.16559
C         18.47888         6.50909         0.11063
C         18.49255         7.88833        -0.19956
C         19.63072         5.90078         0.64403
C         19.72300         8.61564        -0.15927
C         18.48221        10.64602        -0.78584
C         18.43680        12.09065        -1.21013
C         19.70574        10.00496        -0.52408
C         19.72427        12.84746        -0.93941
C         18.42497        15.00551        -0.91935
C         18.56433        16.20652         0.02938
C         19.71894        14.22063        -0.94930
C         19.83831        16.97479         0.01985
C         18.58106        19.08225         0.53058
C         19.82697        18.41706         0.38816
C         20.67477         2.38764         1.72242
C         20.65852         3.83235         1.54372
C         21.90255         4.53454         1.53025
C         20.87957         6.59686         0.68452
C         20.92777         7.95385         0.21154
C         22.00542         5.86373         1.15870
C         22.14973         8.69171         0.10592
C         20.96198        10.72750        -0.59178
C         20.97172        12.11467        -0.86150
C         22.16295        10.00306        -0.30003
C         22.19794        12.85505        -1.02718
C         20.97737        14.98271        -1.12464
C         21.03342        16.45933        -0.73048
C         22.21215        14.20022        -1.21965
C         22.29292        17.16923        -0.45134
C         21.05312        19.06605         0.48362
C         22.27120        18.39883         0.14837
O         19.51683        16.02393         1.12446
O          8.89223        15.07264        -1.32196
O         15.56192         5.99127        -1.95737
O          6.80665         6.05094         1.54113
O         12.71152        17.00241        -1.30902
O         17.97948         3.05422         2.25353
O          5.48209         3.90427         1.65612
O         20.83054        16.08608        -2.13696
O         10.95212         2.42737        -1.42891
O          8.30410        11.55073        -1.99182
O         11.14466        10.70391        -2.81831
H         10.35379        11.16928        -3.17039
O          6.11648        10.41752         1.23975
H          5.36056        10.92343         1.63291
O         17.88514         5.12876        -1.66710
H         17.11804         5.09961        -2.28880
O          2.51439         3.88924        -1.97653
H          2.52204         2.91782        -2.11587
O          7.00384         4.19226        -1.58238
H          7.84414         4.40171        -2.04423
O         18.31453        12.08371        -2.67515
H         18.20995        13.01795        -2.96156
O          9.92782         0.96405         1.83885
H          9.70714         1.77395         2.34297
O         11.57940        15.94823         1.95136
H         10.83642        15.45085         2.35510
O          3.36334        16.20685         2.29978
H          3.37479        17.11438         2.67420
O          9.65634         7.99385        -2.50464
H         10.43573         8.40319        -2.94433
O         13.34381         7.50316         1.27517
H         13.40545         8.35725         1.75078
O         16.06912         7.57689         1.33671
H         16.12109         8.45344         1.77333
O         13.19241         6.63418        -2.25084
H         14.05483         6.60154        -2.72806
O          4.91599         9.98109        -2.18960
H          4.09516         9.57994        -2.54474
O          7.53426        16.62478         2.73145
H          8.19351        17.22899         3.13722
O          3.69076        11.83457         1.71650
H          2.82377        11.45252         1.97500
O          7.70934        13.79506         1.95190
H          7.49778        14.58909         2.49964
O         14.67119        12.48971         1.35163
H         14.00031        13.10095         1.72509
O         18.17607        15.52675        -2.25487
H         19.03800        15.89547        -2.57836
O         17.19483        16.63653         1.96310
H         18.12080        16.51329         2.28412
H          0.16467         1.54502         0.37875
H          0.11683         3.92312        -0.23234
H          2.31180         0.27063         0.45879
H          0.22565         5.84995        -0.76473
H          0.22126         8.29434        -0.75941
H          0.19051        10.22951        -0.25123
H          0.21987        12.66091        -0.16474
H          0.32806        14.63553        -0.40464
H          0.45452        17.07930        -0.33045
H          1.74152        19.17761         0.12820
H          4.78719         0.24303         0.42186
H          3.83619        20.30541         0.80207
H          7.33706         0.24324         0.35196
H          6.26627        20.25892         1.11397
H          9.71426         0.24993        -0.08095
H          8.73618        20.23123         1.30824
H         12.36478         0.40006         0.81535
H         11.22291        20.18608         1.34429
H         14.78589         0.36732         0.61057
H         13.72404        20.20478         0.95844
H         17.27630         0.41437         0.28952
H         16.14527        20.21829         0.59655
H         19.89334         0.42093         1.49190
H         18.59030        20.17466         0.67095
H         21.68581         1.95893         1.82515
H         22.81164         3.99372         1.83366
H         22.99080         6.34900         1.20370
H         23.10126         8.20023         0.35225
H         23.13050        10.51987        -0.35704
H         23.15018        12.30889        -1.06925
H         23.15697        14.72222        -1.42309
H         23.24177        16.73967        -0.80049
H         21.08848        20.12200         0.78606
H         23.21840        18.93352         0.30937
