         618
 CSIRO Nanostructure Databank - Neutral Graphene Oxide Data Set
C         22.84237        69.66477         1.25221
C         22.84101        71.03690         1.47172
C         21.65392        71.73571         1.83785
C         22.90537        73.78939         2.31072
C         21.69280        73.07384         2.20412
C         25.30948        65.36317         0.03312
C         25.27547        66.73255         0.58865
C         24.03966        67.53364         0.77899
C         25.31188        69.67401         0.96937
C         24.03482        68.89747         0.98710
C         25.33206        71.06463         1.54604
C         24.09083        71.87335         1.23859
C         25.36086        73.84959         2.18816
C         24.12755        73.20176         1.96335
C         27.93721        61.32820        -0.85514
C         27.83388        62.73925        -0.87594
C         26.61496        63.35379        -0.55108
C         27.71947        65.56675        -0.64594
C         26.49496        64.76086        -0.36664
C         27.76289        66.97409        -0.12660
C         26.57800        67.44646         0.66508
C         27.87699        69.49331         1.29840
C         26.57892        68.92308         0.85386
C         27.90280        70.97287         1.56457
C         26.63588        71.77719         1.76801
C         27.80433        74.04129         2.19879
C         26.63661        73.27492         1.95678
C         30.47291        57.15959        -0.92863
C         30.38749        58.52625        -1.15557
C         29.21577        59.25252        -0.86220
C         30.35381        61.36382        -1.46546
C         29.14519        60.64145        -1.07153
C         30.23359        62.84195        -1.77476
C         29.03503        63.53066        -1.14314
C         30.20445        65.73682        -1.18851
C         28.99817        64.88679        -0.98340
C         30.26522        67.11745        -0.56354
C         29.05678        67.67582         0.09795
C         30.41546        69.49058         1.20869
C         29.10853        68.85230         0.77709
C         30.36002        71.00538         1.12285
C         29.13408        71.59925         1.08276
C         30.40237        73.92202         2.08795
C         29.09137        73.68136         1.69175
C         32.90467        52.82278        -0.92675
C         32.78133        54.19177        -1.38144
C         31.64965        55.04024        -1.02129
C         32.85220        57.12812        -1.67724
C         31.64531        56.40315        -1.24829
C         32.80817        58.50625        -1.82688
C         31.49558        59.21127        -1.88741
C         32.73723        61.47736        -2.22773
C         31.51840        60.70540        -1.74213
C         32.72969        62.91729        -1.73474
C         31.54852        63.56910        -1.55833
C         32.81155        65.79592        -1.25283
C         31.51190        65.05285        -1.49972
C         32.79285        67.12060        -0.59986
C         31.57766        67.73734        -0.23092
C         32.79179        69.71684         0.54445
C         31.59482        68.98148         0.42664
C         32.78416        71.11690         0.97563
C         31.57423        71.80304         1.14659
C         32.81140        73.84679         1.73272
C         31.56977        73.20174         1.59830
C         35.33374        48.48736        -1.16019
C         35.32558        49.98705        -0.99742
C         34.13596        50.69800        -0.91644
C         35.35361        52.81072        -1.30474
C         34.11021        52.11937        -1.06202
C         35.37292        54.21683        -1.53333
C         34.10800        54.93804        -1.73649
C         35.33240        57.07066        -1.78546
C         34.11411        56.40913        -1.72272
C         35.34906        58.50978        -2.09011
C         34.02321        59.26574        -2.16474
C         35.26137        61.38428        -1.85864
C         34.05266        60.73837        -1.98989
C         35.31409        62.87403        -1.84187
C         34.01533        63.66142        -1.77939
C         35.27672        65.64315        -0.90402
C         34.07125        65.03004        -1.23992
C         35.28515        67.00401        -0.39980
C         34.02583        67.71934        -0.23015
C         35.23777        69.68434         0.73284
C         34.00058        69.04193         0.27546
C         35.23772        71.14832         0.89249
C         34.04557        71.81727         1.07289
C         35.28252        73.90355         1.56972
C         34.05287        73.23149         1.42511
C         37.58506        44.40758         0.63288
C         37.49916        45.86391         0.63703
C         36.39853        46.54238        -0.04460
C         37.74538        48.57230        -0.37725
C         36.50520        47.84916        -0.44946
C         37.83891        49.87470        -1.13353
C         36.56129        50.67342        -1.04838
C         37.83772        52.75576        -1.30761
C         36.58498        52.07980        -1.18921
C         37.83578        54.16638        -1.71190
C         36.57789        54.93188        -1.64785
C         37.80666        57.09323        -1.74919
C         36.59835        56.36348        -1.73904
C         37.80517        58.53017        -1.71550
C         36.57930        59.26630        -1.83528
C         37.76053        61.39107        -1.59426
C         36.53263        60.66622        -1.76274
C         37.76250        62.80316        -1.38770
C         36.54194        63.55279        -1.38627
C         37.75707        65.56712        -0.64522
C         36.52748        64.90801        -1.00529
C         37.73167        66.88825        -0.14919
C         36.50303        67.59459        -0.02458
C         37.77733        69.70290         0.76901
C         36.51735        68.92784         0.62794
C         37.74525        71.06286         0.99492
C         36.52386        71.89827         0.69707
C         37.75217        73.92817         1.51759
C         36.53359        73.27366         1.33371
C         39.96785        40.16544         1.28854
C         39.95373        41.55959         1.16027
C         38.78432        42.31045         0.96833
C         40.01488        44.50378         1.03057
C         38.77471        43.73964         0.89325
C         40.04872        45.86748         0.93466
C         38.81197        46.66067         0.80746
C         40.13832        48.70299         0.21135
C         38.89188        48.00931         0.19627
C         40.23806        50.03036        -0.32359
C         39.07596        50.67741        -0.83323
C         40.30619        52.81972        -1.12537
C         39.07547        52.07574        -1.14101
C         40.35050        54.21373        -1.29026
C         39.14477        54.90859        -1.79375
C         40.28671        57.10455        -1.24200
C         39.15497        56.42310        -1.97525
C         40.27149        58.54269        -1.33789
C         39.02401        59.24369        -1.61351
C         40.22574        61.39372        -1.53081
C         39.00322        60.67579        -1.58765
C         40.23221        62.78836        -1.35336
C         38.99432        63.49053        -1.19822
C         40.25243        65.51038        -0.62364
C         39.00557        64.86567        -0.82931
C         40.28560        66.82945         0.03014
C         38.98014        67.52367         0.33180
C         40.22335        69.63855         0.74378
C         39.01766        68.97960         0.64402
C         40.27069        70.99879         1.28565
C         38.95478        71.76193         1.42293
C         40.24629        73.87027         1.54165
C         39.01132        73.24160         1.45891
C         42.49053        35.99083         2.41557
C         42.43320        37.49331         2.50768
C         41.19632        38.14155         1.94989
C         42.45479        40.14306         1.20822
C         41.19519        39.45059         1.51576
C         42.46832        41.49342         0.98426
C         41.24871        42.27656         1.28023
C         42.55329        44.46115         0.81889
C         41.29442        43.76856         1.22186
C         42.56509        45.84475         0.75070
C         41.33798        46.59682         1.25956
C         42.64439        48.77524         0.70126
C         41.31238        48.08710         0.86925
C         42.68470        50.11991         0.06977
C         41.49485        50.72645        -0.34688
C         42.78698        52.86874        -0.69226
C         41.59072        52.04160        -1.08554
C         42.75757        54.28335        -0.68329
C         41.51812        54.97389        -0.97397
C         42.60321        57.16000        -0.34675
C         41.44126        56.40477        -0.88086
C         42.65397        58.64357        -0.66353
C         41.46053        59.24988        -1.24884
C         42.75096        61.39757        -1.31983
C         41.51808        60.65264        -1.75935
C         42.71780        62.78105        -1.33998
C         41.47588        63.50455        -1.26193
C         42.77362        65.49833        -0.42476
C         41.47459        64.86204        -0.88485
C         42.74111        67.00097        -0.30508
C         41.53873        67.61460        -0.05841
C         42.77112        69.78153         0.40700
C         41.47129        69.05605         0.20523
C         42.76667        70.96897         1.34419
C         41.51305        71.77824         1.25576
C         42.76888        73.84106         1.59691
C         41.50639        73.15430         1.47840
C         44.98316        33.26044         2.77708
C         43.75970        33.91347         2.65447
C         44.91028        36.15566         3.00605
C         43.67139        35.33996         2.66875
C         44.89974        37.47016         2.24139
C         43.71993        38.07278         1.94848
C         45.00312        39.99800         0.83090
C         43.69129        39.32439         1.15859
C         44.96318        41.44719         0.46092
C         43.66464        42.22265         0.51277
C         44.96124        44.34488         0.28023
C         43.74376        43.70330         0.55773
C         45.02173        45.78921         0.26033
C         43.80380        46.53883         0.50827
C         45.15006        48.60082         0.58546
C         43.85829        47.93069         0.59461
C         45.16583        50.15061         0.40524
C         43.92587        50.80289        -0.00691
C         45.21083        52.91055        -0.25658
C         43.98312        52.18541        -0.37114
C         45.18751        54.33159        -0.28615
C         43.95355        55.00401        -0.40948
C         45.18263        57.22938        -0.25237
C         43.90067        56.44454         0.03376
C         45.17155        58.61477        -0.45641
C         43.96442        59.33680        -0.74108
C         45.24808        61.43268        -1.21720
C         43.98425        60.70000        -1.07908
C         45.22604        62.81712        -1.55728
C         43.97139        63.52794        -1.52136
C         45.26322        65.70115        -0.98861
C         43.98224        65.03227        -1.20848
C         45.25543        67.04172        -0.47486
C         44.00877        67.70103        -0.19443
C         45.25058        69.69379         0.56169
C         44.03463        69.03334         0.26291
C         45.22000        71.06299         1.03906
C         44.04153        71.75072         1.24920
C         45.24651        73.87991         1.56522
C         44.00363        73.18050         1.50717
C         46.18645        33.96931         2.83098
C         47.41294        36.06730         2.67224
C         46.21609        35.39343         2.81336
C         47.47488        37.52829         2.54163
C         46.17143        38.22921         2.18117
C         47.47108        40.13549         1.23902
C         46.26545        39.47136         1.41089
C         47.42493        41.47786         0.64242
C         46.21653        42.20430         0.52478
C         47.44582        44.26050         0.03461
C         46.21253        43.58693         0.22097
C         47.38784        45.64383        -0.56392
C         46.23771        46.46180         0.00056
C         47.54743        48.59029        -0.07921
C         46.34995        47.87404         0.14637
C         47.62254        50.01481         0.06307
C         46.44108        50.78708         0.08873
C         47.65740        52.92910         0.04431
C         46.45003        52.21324        -0.05860
C         47.66964        54.35226        -0.00445
C         46.42282        55.07964        -0.12656
C         47.68766        57.19988         0.06074
C         46.40594        56.48524        -0.10738
C         47.70991        58.71660        -0.07146
C         46.39705        59.49055        -0.19435
C         47.73433        61.37579        -1.39804
C         46.44935        60.73981        -1.04832
C         47.79710        62.86525        -1.63462
C         46.44305        63.61992        -1.74429
C         47.70758        65.72800        -1.30430
C         46.46665        65.04758        -1.35257
C         47.69406        67.18224        -0.98939
C         46.46908        67.76456        -0.37661
C         47.73265        69.75294         0.43415
C         46.49111        69.06129         0.21392
C         47.74810        71.07022         0.98352
C         46.49116        71.69065         1.52937
C         47.70514        73.87495         1.58560
C         46.47820        73.20541         1.50624
C         48.71314        38.24492         2.22501
C         49.96863        40.31298         1.93000
C         48.72047        39.54458         1.76260
C         50.37345        41.30183         1.07934
C         48.57760        42.14856         0.21271
C         49.97376        44.22228         0.06628
C         48.66286        43.54669         0.07919
C         49.97463        45.56169        -0.24131
C         48.74568        46.34856        -0.56374
C         50.04030        48.52299         0.02682
C         48.79030        47.85471        -0.43919
C         50.07179        49.96448         0.14430
C         48.90023        50.69914         0.08049
C         50.15671        52.91022         0.05001
C         48.90397        52.17308         0.44309
C         50.14846        54.27842        -0.02260
C         48.91837        55.04274         0.01757
C         50.16622        57.19432        -0.13302
C         48.96657        56.47090        -0.06841
C         50.18538        58.61221        -0.36124
C         48.98343        59.32224        -0.46380
C         50.24408        61.44378        -0.86918
C         49.00850        60.67692        -1.03601
C         50.17748        62.93963        -0.66906
C         48.98104        63.63579        -1.28238
C         50.23713        65.81628        -1.68991
C         48.95621        65.03602        -1.36949
C         50.30537        67.23774        -1.05613
C         48.99306        67.92557        -0.82794
C         50.16588        69.82299         0.25420
C         48.98378        69.18150        -0.02089
C         50.20870        70.97597         1.22727
C         48.93779        71.76326         1.20152
C         50.17271        73.84341         1.64912
C         48.94869        73.17098         1.51828
C         51.34538        42.36340         1.20324
C         52.43050        44.42385         0.63379
C         51.22120        43.60852         0.59943
C         52.51367        45.69309         0.14501
C         51.25916        46.34572        -0.37141
C         52.85331        48.67636        -0.76827
C         51.08511        47.65917         0.36482
C         52.69183        49.98822        -0.00342
C         51.38642        50.68090         0.20406
C         52.67834        52.85869         0.24438
C         51.41312        52.12929        -0.25713
C         52.70083        54.28320        -0.25064
C         51.41379        55.02338        -0.27766
C         52.71785        57.16490        -0.40836
C         51.47021        56.48286         0.11864
C         52.67887        58.59800        -0.62233
C         51.44755        59.30454        -0.57607
C         52.69673        61.46355        -0.73683
C         51.44295        60.74215        -0.70683
C         52.69588        62.88406        -0.92454
C         51.46869        63.61671        -1.03612
C         52.74075        65.46295        -1.83177
C         51.47562        64.93776        -1.48433
C         52.74852        67.59749        -1.40601
C         51.42849        68.02504        -0.97802
C         52.64730        69.66905         0.56140
C         51.44708        69.42938        -0.41281
C         52.67433        71.14679         0.88837
C         51.47121        71.78989         1.14856
C         52.64314        73.90156         1.51311
C         51.43212        73.19202         1.45045
C         53.76504        46.45478         0.12588
C         55.26793        48.47702        -0.24718
C         53.91970        47.75614        -0.25011
C         55.18470        50.00719        -0.20392
C         53.97372        50.73695        -0.15523
C         55.18360        52.86191        -0.08184
C         53.96988        52.13626        -0.07221
C         55.17605        54.32530        -0.13773
C         53.97659        55.02816        -0.17455
C         55.16565        57.09075        -0.86552
C         53.91035        56.44835        -0.43102
C         55.13808        58.58677        -1.10753
C         53.89319        59.32152        -0.81394
C         55.18165        61.45601        -0.81998
C         53.91674        60.73822        -0.78260
C         55.18116        62.87184        -0.90452
C         53.94686        63.56638        -1.04971
C         55.22365        65.76821        -1.54342
C         53.95870        64.92762        -1.44282
C         55.15664        67.06889        -0.68401
C         53.92544        67.95009        -0.79686
C         55.12268        69.87738         0.06203
C         53.94956        69.17239        -0.01809
C         55.13804        71.23445         0.57524
C         53.90264        71.86854         0.91420
C         55.10836        73.96839         1.32636
C         53.88398        73.26232         1.26016
C         56.38384        50.73660        -0.14413
C         57.72003        52.84573         0.11949
C         56.39853        52.13832        -0.08258
C         57.67652        54.33540        -0.13672
C         56.44355        55.02338        -0.25966
C         57.66568        57.11018        -0.60888
C         56.45196        56.41097        -0.57344
C         57.71099        58.57296        -0.85640
C         56.43869        59.32753        -1.07711
C         57.64881        61.48386        -0.69243
C         56.41398        60.77529        -0.80852
C         57.63511        62.89182        -0.70987
C         56.41995        63.60364        -0.90671
C         57.66890        65.73700        -0.97604
C         56.44009        65.00815        -1.06778
C         57.64259        67.21113        -0.95114
C         56.44773        67.86819        -0.78715
C         57.62471        70.02338        -0.18706
C         56.34883        69.38297        -0.68057
C         57.61900        71.30237         0.37440
C         56.34807        71.94741         0.66499
C         57.56565        74.02246         1.19715
C         56.33474        73.32455         1.07090
C         58.88200        55.03593        -0.22904
C         60.14089        57.17732        -0.48617
C         58.90325        56.43634        -0.41544
C         60.17700        58.56542        -0.50745
C         58.88404        59.30601        -0.24143
C         60.12575        61.45831        -0.66331
C         58.90435        60.77562        -0.58679
C         60.15477        62.88675        -0.74735
C         58.89867        63.64130        -0.40740
C         60.15246        65.77250        -1.23553
C         58.87695        65.07122        -0.85701
C         60.13386        67.23710        -0.85084
C         58.92245        67.91086        -0.84288
C         60.17175        70.04815        -0.19797
C         58.87344        69.36981        -0.60573
C         60.06375        71.24828         0.64600
C         58.84660        71.97070         0.76808
C         59.99117        74.20399         1.26516
C         58.81505        73.37798         1.14204
C         61.37665        59.31153        -0.63789
C         62.59759        61.44889        -0.72971
C         61.38153        60.71591        -0.67957
C         62.61188        62.84445        -0.77401
C         61.36918        63.58433        -0.81720
C         62.60894        65.70136        -0.70453
C         61.40295        65.02012        -0.84959
C         62.61785        67.14385        -0.49914
C         61.39299        67.88279        -0.52503
C         62.57561        69.83738         0.39374
C         61.39558        69.23337        -0.10072
C         62.52668        71.13387         1.01134
C         61.23108        71.61926         1.33087
C         62.54983        74.14542         1.52454
C         61.22896        73.70275         1.69285
C         63.83819        63.58429        -0.73548
C         65.16979        65.68300        -0.67279
C         63.84671        64.95696        -0.65733
C         65.09058        67.09192        -0.13829
C         63.82898        67.78669        -0.12331
C         64.99447        69.80194         0.76942
C         63.81072        69.13824         0.33929
C         64.95635        71.16549         1.20795
C         63.70463        71.85777         1.34881
C         64.94520        73.91701         1.84800
C         63.70276        73.28841         1.63582
C         66.24022        67.73189         0.26131
C         67.42802        69.74747         1.06890
C         66.24106        69.09746         0.70976
C         67.42240        71.11212         1.45339
C         66.18108        71.82158         1.51125
C         67.40024        73.85675         2.14708
C         66.17342        73.21185         1.85192
C         68.62479        71.79655         1.77300
C         68.60211        73.14719         2.11475
O         57.34734        58.99365        -2.19739
O         35.78858        68.94446         1.91792
O         31.08121        59.06600        -3.42804
O         59.65205        70.17960        -1.56453
O         33.25767        54.38372        -2.76851
O         34.70727        58.81498        -3.38228
O         37.88591        46.51140         1.91144
O         44.20375        41.70125        -0.75810
O         28.07181        69.99248         2.65588
O         48.84403        47.21506        -1.78214
O         42.04896        69.93382        -0.85012
O         44.33639        39.14520        -0.15514
O         48.23581        68.03708        -2.09873
O         32.20174        65.70986        -2.60223
O         52.78225        66.70157        -2.48233
O         38.58884        54.29731        -3.01201
O         55.04852        57.65248        -2.22327
O         41.90529        48.86753         1.97766
O         28.99275        72.86686         0.53576
O         27.43032        66.71821        -1.52158
O         45.24030        49.51602         1.72683
O         42.28286        58.13214         0.69719
O         47.75089        58.07518         1.25776
O         61.12109        72.47597         2.41327
O         48.47554        60.65463        -2.46465
O         39.68918        66.75826         1.38406
O         52.18511        50.26216         1.38713
O         52.03568        54.61022        -1.53828
O         26.19036        66.71598         1.85154
O         26.02736        69.62622        -0.32141
O         25.84816        71.18037         2.88432
O         43.77689        64.57695        -2.56043
O         41.38762        43.07429         2.51950
O         34.73223        63.47263        -3.06181
O         52.47228        48.67695        -1.92809
O         30.02548        66.92892        -2.00029
O         49.67771        41.37718        -0.14458
O         46.70823        38.29765         3.56886
O         39.58489        71.13219         2.59227
O         47.23160        63.27454        -2.91609
O         65.65209        65.72754        -2.03493
H         64.97736        66.18252        -2.58016
O         55.08725        66.57883         0.69194
H         54.83783        67.32832         1.27556
O         51.61292        56.44440         1.58168
H         51.41748        57.34056         1.92805
O         35.43849        48.19944        -2.56825
H         36.31174        48.55639        -2.86700
O         52.43169        68.89217         1.76143
H         51.68494        69.30954         2.26697
O         56.09820        48.00751         0.81620
H         55.71237        48.30088         1.66654
O         49.99596        63.11442         0.79204
H         50.78724        62.73785         1.23361
O         47.03350        45.39934        -1.95898
H         47.43670        46.13167        -2.48190
O         46.13529        60.03682         1.14525
H         46.42198        59.34058         1.78375
O         42.42440        37.82727         3.93715
H         43.20397        37.36547         4.34656
O         24.12912        72.18669        -0.18372
H         24.21700        71.34448        -0.68019
O         56.18818        69.86274        -2.06185
H         57.05505        69.77574        -2.51367
O         51.66583        70.33948        -1.52613
H         50.92899        70.22482        -2.16272
O         58.92661        63.73137         1.08794
H         58.76114        62.82638         1.43082
O         41.82846        51.65037        -2.50495
H         41.79827        52.47175        -3.04165
O         30.96410        57.68365        -3.72600
H         31.84137        57.44979        -4.11942
O         41.67383        60.53828        -3.22479
H         41.67474        61.44676        -3.59570
O         51.43330        46.52403        -1.79122
H         50.60762        46.93146        -2.15482
O         43.89280        56.33403         1.49409
H         43.45212        57.15192         1.82744
O         41.43080        46.51281         2.70434
H         41.79890        47.37372         3.01916
O         30.64466        69.06358         2.58164
H         29.84503        69.33117         3.09565
O         58.75378        52.23419        -0.66238
H         58.55209        52.38444        -1.60862
O         51.81874        47.78043         1.48443
H         51.69834        48.68445         1.88259
O         32.60256        61.60092        -3.67886
H         33.34869        62.17264        -3.98051
O         46.53397        71.32613         2.96633
H         45.65195        71.53336         3.34530
O         37.95839        49.47684        -2.57437
H         38.16191        50.29292        -3.08215
O         55.45336        66.13421        -2.92125
H         54.60790        66.50634        -3.26534
O         39.45394        56.67167        -3.38562
H         38.98920        55.96552        -3.89378
O         43.00648        64.98964         0.92953
H         42.26654        65.29415         1.49814
O         29.99386        62.90593        -3.21130
H         30.75448        62.45561        -3.65448
O         50.13567        66.06151        -3.11537
H         49.38494        66.68741        -3.24611
O         48.90781        52.17068         1.92456
H         48.84246        53.10350         2.22260
O         50.25077        70.34689         2.58897
H         49.33008        70.09051         2.81969
O         36.59928        72.15156        -0.76021
H         35.88593        72.78742        -0.98373
O         52.60249        52.96692         1.68707
H         52.55547        52.05007         2.04712
O         58.66342        59.24337         1.21178
H         59.50024        59.50416         1.65133
O         42.77035        70.39272         2.70911
H         41.91291        70.60443         3.13960
O         44.81958        36.49861         4.42596
H         45.54275        37.15713         4.58517
O         51.49216        52.00212        -1.69915
H         51.56714        52.91755        -2.07054
O         60.17135        65.74576        -2.71381
H         59.36915        66.21520        -3.02978
H         22.89473        74.80151         2.74151
H         25.32984        74.88931         2.55228
H         27.68479        74.99562         2.73653
H         30.59218        74.70284         2.84105
H         32.82525        74.89041         2.08328
H         35.27854        74.93672         1.95059
H         37.75261        75.00003         1.77158
H         40.28239        74.96680         1.63051
H         42.75937        74.92978         1.75616
H         45.23821        74.97762         1.65091
H         47.72018        74.97083         1.69139
H         50.16937        74.92282         1.86324
H         52.63247        74.97440         1.75682
H         55.10501        75.03315         1.60292
H         57.53585        75.09656         1.43441
H         59.89420        75.26908         1.00725
H         62.73144        75.20139         1.27428
H         64.96181        74.99988         2.04257
H         67.39778        74.92543         2.40522
H         21.88933        69.11851         1.33418
H         20.70466        71.18205         1.88869
H         20.75934        73.57332         2.50064
H         24.40389        64.74356         0.12696
H         23.07863        66.99584         0.77100
H         27.04144        60.74167        -0.60081
H         25.73791        62.71789        -0.35716
H         29.61056        56.62901        -0.49737
H         28.34065        58.72165        -0.45840
H         32.02961        52.32414        -0.48486
H         30.76902        54.56862        -0.55996
H         34.37147        48.04597        -0.80038
H         33.18188        50.15774        -0.82658
H         36.68565        43.83090         0.36808
H         35.48511        45.97221        -0.27189
H         39.01792        39.60983         1.30064
H         37.82113        41.78362         0.88850
H         41.57456        35.41553         2.20870
H         40.23318        37.64008         2.13325
H         45.00970        32.16165         2.77075
H         42.83775        33.32973         2.51756
H         47.14071        33.42206         2.83003
H         48.34502        35.49529         2.54344
H         49.66676        37.76238         2.48792
H         50.54164        40.12091         2.84943
H         52.27486        42.15874         1.75909
H         53.33733        43.94247         1.03384
H         54.66172        45.92058         0.48515
H         55.79287        48.19718        -1.20229
H         57.34198        50.19700        -0.13072
H         58.01647        52.68884         1.19671
H         59.82878        54.48360        -0.13882
H         61.08428        56.61122        -0.52897
H         62.32977        58.77126        -0.74445
H         63.55073        60.90055        -0.69051
H         64.79007        63.03244        -0.74330
H         65.93042        65.10061        -0.09292
H         67.19944        67.19374         0.22556
H         68.38292        69.20304         1.02215
H         69.57826        71.25027         1.74078
H         69.54292        73.66271         2.35379
