         236
 CSIRO Nanostructure Databank - Neutral Graphene Oxide Data Set
C        -10.86951         0.76217         1.06829
C         -9.73270         1.55536         0.65894
C         -8.68024         0.86082        -0.12066
C         -7.51185         1.60896        -0.67155
C         -6.28892         0.84878        -1.14887
C         -4.94425         1.50925        -1.11185
C         -3.70219         0.69351        -1.25458
C         -2.46294         1.43668        -1.29738
C         -1.25271         0.75159        -1.78738
C          0.02933         1.54894        -1.88719
C          1.30862         0.76468        -1.85884
C          2.59266         1.51024        -1.62841
C          3.67088         0.89552        -0.75316
C          5.08000         1.40887        -1.11731
C          6.14340         0.73964        -0.24238
C          7.45226         1.42504        -0.21688
C          8.52760         0.86579         0.64932
C          9.86372         1.50172         0.54468
C         11.00174         0.70240         0.94324
C         -9.60244         2.88981         0.93161
C         -8.42414         3.65575         0.57510
C         -7.39365         3.12278        -0.42992
C         -5.98815         3.55141        -0.04157
C         -4.84121         2.83637        -0.46030
C         -3.55937         3.42593        -0.36668
C         -2.38085         2.79058        -0.92394
C         -1.14849         3.54671        -0.95547
C          0.07016         2.96211        -1.41611
C          1.27757         3.68707        -1.41142
C          2.57445         3.00038        -1.65520
C          3.87733         3.71173        -1.38331
C          5.10748         2.94667        -1.00354
C          6.25394         3.62777        -0.72733
C          7.52896         2.89924        -0.50548
C          8.72693         3.61719        -0.00387
C          9.91676         2.85069         0.27054
C         -8.26583         4.90149         1.09771
C         -7.03143         5.72795         0.81590
C         -5.83782         4.73895         0.70540
C         -4.53623         5.12763         1.04112
C         -3.42543         4.66741         0.30260
C         -2.28627         5.51667         0.06614
C         -1.12570         4.92325        -0.53362
C          0.04974         5.70263        -0.66749
C          1.30171         5.07698        -1.02259
C          2.49156         5.81576        -0.93340
C          3.81534         5.19290        -1.09931
C          5.00524         5.81801        -0.51725
C          6.33607         5.15381        -0.76644
C          7.43247         5.70800         0.11952
C          8.63824         4.96951         0.28369
C         -6.86617         6.83075         1.82103
C         -5.83453         7.94129         1.75475
C         -4.52067         7.28738         1.40644
C         -3.61866         7.66364         0.47165
C         -2.37627         6.93081         0.19261
C         -1.23131         7.72411        -0.03509
C          0.01888         7.10105        -0.33028
C          1.19794         7.86785        -0.27793
C          2.50034         7.31265        -0.77259
C          3.67681         7.81647         0.03524
C          4.90763         7.09634         0.05557
C          6.07816         7.69585         0.65976
C          7.28920         6.96275         0.70594
C         -6.07063         9.11063         0.82193
C         -5.10792         9.63158         0.04797
C         -3.76105         8.99481        -0.22192
C         -2.54418         9.80888         0.15926
C         -1.30234         9.17027         0.15283
C         -0.07993         9.86444         0.36560
C          1.16368         9.21352         0.21277
C          2.38681         9.84031         0.58462
C          3.60366         9.11751         0.60130
C          4.78110         9.68797         1.19350
C          5.97084         8.99634         1.22504
C        -10.87707        -0.59482         0.91476
C         -9.69763        -1.30471         0.46332
C         -8.60313        -0.60626         0.03772
C         -7.30556        -1.27763        -0.20815
C         -6.31885        -0.66301        -1.16032
C         -5.04031        -1.43081        -1.38617
C         -3.76176        -0.67375        -1.50151
C         -2.52583        -1.44813        -1.81732
C         -1.21675        -0.73700        -1.67072
C         -0.04110        -1.41541        -1.55883
C          1.27393        -0.70716        -1.62137
C          2.49143        -1.32439        -1.02207
C          3.59385        -0.61060        -0.66424
C          4.72781        -1.24905         0.06390
C          5.99228        -0.50279         0.28795
C          7.04586        -1.24121         1.13583
C          8.35043        -0.46220         1.29941
C          9.56688        -1.20971         1.83661
C         10.87534        -0.52117         1.51088
C         -9.64046        -2.81654         0.45894
C         -8.29524        -3.30938         1.05327
C         -7.10869        -2.66890         0.29479
C         -6.05774        -3.48988        -0.38387
C         -5.00115        -2.89476        -1.01737
C         -3.95325        -3.72092        -1.76640
C         -2.57235        -2.97235        -1.89057
C         -1.25819        -3.72229        -1.68328
C          0.00478        -2.90417        -1.54706
C          1.16046        -3.50719        -0.75926
C          2.49667        -2.81104        -1.00060
C          3.73507        -3.51650        -0.57524
C          4.82356        -2.73987         0.09215
C          6.13466        -3.40642         0.29567
C          7.23350        -2.69203         0.68558
C          8.50201        -3.38057         0.95770
C          9.61418        -2.64781         1.39291
C         -8.27072        -4.80663         1.07291
C         -7.31747        -5.57545         0.45669
C         -6.25753        -4.96343        -0.37993
C         -5.07232        -5.84628        -0.77000
C         -3.81261        -5.17701        -1.25451
C         -2.50569        -5.85044        -0.96155
C         -1.23632        -5.09549        -1.08075
C         -0.06981        -5.72384        -0.77728
C          1.22399        -5.01734        -0.93306
C          2.47530        -5.73938        -0.56590
C          3.64722        -4.93683        -0.12630
C          4.91650        -5.64161         0.19400
C          6.19283        -4.87134         0.05732
C          7.47370        -5.61106         0.38820
C          8.58088        -4.79024         0.86315
C         -7.33217        -7.00186         0.59444
C         -6.18113        -7.76568         0.36364
C         -5.00859        -7.16592        -0.14521
C         -3.71746        -7.79195         0.27442
C         -2.45995        -7.17156        -0.27581
C         -1.28315        -7.82480        -0.07462
C         -0.00933        -7.02967        -0.01726
C          1.27358        -7.83230        -0.15913
C          2.46909        -7.17587        -0.18890
C          3.74603        -7.83215         0.08357
C          4.93213        -7.12298         0.20108
C          6.18633        -7.76800         0.55429
C          7.35850        -7.05213         0.69889
C         -6.11832        -9.17041         0.78426
C         -4.99323        -9.90490         0.67151
C         -3.72653        -9.31996         0.07774
C         -2.45914        -9.88839         0.64451
C         -1.24470        -9.21112         0.43430
C         -0.00742        -9.84171         0.62433
C          1.22212        -9.33706        -0.08255
C          2.51955        -9.93972         0.39574
C          3.70998        -9.25893         0.38360
C          4.96799        -9.89438         0.74102
C          6.13260        -9.19758         0.81168
O          3.37049         1.40370         0.58378
H          3.89612         0.89273         1.23711
O          0.83199        -3.24167         0.63327
H          1.45549        -3.72871         1.21436
O         -7.12739         6.31170        -0.50191
H         -7.31510         5.58384        -1.14413
O          4.28121        -2.01187         1.26344
O          3.45480        -3.32823        -1.98571
O          4.11973         4.66748        -2.46800
O          2.87397         2.20759        -2.86770
O          8.08914         0.76679         2.05546
O          1.49144        -0.15993        -2.97092
O         -8.26398        -2.86826         2.42812
H         -7.62966        -2.11280         2.47073
O         -4.31222         6.05949         2.07089
O         -0.77513         1.30005        -3.07147
O         -3.16879        -5.98713        -2.29175
O         -6.56231        -1.54230         1.07350
O          9.44848        -1.25069         3.29272
H          8.48808        -1.20243         3.50150
O          6.53935        -1.33922         2.49674
H          5.63189        -1.73299         2.44273
O          2.10534        -5.52176        -1.97540
O         -3.68218         8.75441        -1.65795
H         -3.66633         9.62211        -2.11212
O         -2.57474        -2.17847        -3.09581
O         -3.74071        -9.55374        -1.35580
H         -3.47102       -10.48001        -1.52384
O         -6.07231        -1.25229        -2.44807
O         -8.64955         1.30550        -1.54978
O         -7.67595         3.78105        -1.69312
H         -8.26302         3.17822        -2.20602
O          7.04288        -5.29826        -1.03083
O          6.73131         5.48045        -2.14077
H          5.97673         5.19856        -2.71412
O         -9.71561        -3.29256        -0.88501
H        -10.47723        -2.87319        -1.33408
O          0.04870        -6.58731         1.39977
H         -0.17355        -7.36358         1.95866
O          1.07424        -9.79732        -1.48743
H          1.77994        -9.36338        -2.01381
O         -0.31364        -3.56648        -2.79196
O          4.03326        -5.10267         1.26780
O         -4.47931        -3.83454        -3.09175
H         -3.95717        -4.52020        -3.56288
O         -6.18173        -5.61045        -1.68603
O          7.86671         1.88849        -1.53927
O         -5.72155         8.51013         3.08259
H         -5.42902         7.79559         3.68639
O          5.36168         1.04041        -2.47147
H          6.27123         1.35813        -2.67957
O         -3.62230        -7.56285         1.72410
H         -4.35620        -8.05877         2.14837
O          2.67873         7.87271        -2.13823
H          3.39181         7.35667        -2.57281
O         -5.75446         1.46574        -2.34710
H         11.78459        -1.06070         1.81739
H         12.00457         1.13420         0.80146
H         10.87438         3.38639         0.35890
H          9.49650         5.47097         0.75750
H          8.13825         7.38611         1.26529
H          6.86203         9.45174         1.68105
H          4.71837        10.69864         1.62243
H          2.36345        10.86353         0.98793
H         -0.10340        10.92849         0.64456
H         -2.61043        10.89453         0.32819
H         -5.33852        10.52891        -0.55060
H         -7.04657         9.61428         0.89463
H         -7.18513         6.57635         2.84728
H         -9.04476         5.31043         1.76113
H        -10.38818         3.40568         1.50558
H        -11.73240         1.27601         1.51642
H        -11.75170        -1.18254         1.22922
H        -10.48919        -3.23476         1.07015
H         -9.05343        -5.29859         1.66995
H         -8.20166        -7.47157         1.07780
H         -7.03873        -9.62124         1.18655
H         -4.99813       -10.96831         0.95881
H         -2.44871       -10.91518         1.04291
H          0.00182       -10.88280         0.98384
H          2.51614       -11.01223         0.64672
H          4.95755       -10.97319         0.95634
H          7.06741        -9.71060         1.08184
H          8.26507        -7.57566         1.03981
H          9.48280        -5.29062         1.24580
H         10.53563        -3.20222         1.62858
