         294
 CSIRO Nanostructure Databank - Neutral Graphene Oxide Data Set
C          1.44017         1.94663         1.11273
C          1.34426         3.36185         0.81745
C          2.57350         1.25570         0.87150
C          2.44654         4.09722         0.49386
C          1.32249         6.36698         0.83946
C          1.29656         7.69547         0.70153
C          2.30565         5.53390         0.01579
C          2.23344         8.38208        -0.30817
C          1.15126        10.62415         0.15382
C          1.16479        12.00372         0.25690
C          2.33289         9.90417        -0.12610
C          2.36057        12.73999         0.09743
C          1.18817        14.93918         0.42309
C          1.19846        16.32827         0.57406
C          2.37840        14.17789         0.25692
C          2.40224        17.03374         0.64831
C          2.48671        18.46269         0.82286
C          3.78333         1.92389         0.26956
C          3.74829         3.43736         0.40659
C          5.07130         1.35065         0.79600
C          4.91063         4.14043         0.33778
C          3.62274         6.31101         0.02531
C          3.59289         7.64495        -0.14072
C          4.90307         5.64123         0.49875
C          4.81724         8.52560         0.10336
C          3.51636        10.61815        -0.35951
C          3.57018        12.04387        -0.22861
C          4.70165         9.79225        -0.80128
C          4.78865        12.79355        -0.40407
C          3.62931        14.84282         0.27430
C          3.65005        16.27348         0.58585
C          4.83672        14.16655        -0.06376
C          4.92881        17.05054         0.28438
C          3.61990        19.16690         0.56293
C          4.84603        18.53503        -0.03954
C          6.25735         2.03980         0.64986
C          6.20070         3.40673        -0.01302
C          7.50929         1.44648         0.93781
C          7.46696         4.21414         0.21006
C          6.12948         6.27894        -0.14257
C          6.10467         7.75915        -0.29970
C          7.41737         5.59866         0.02274
C          7.35535         8.61307        -0.08504
C          5.99027        10.60958        -1.02619
C          5.99158        12.11943        -0.97814
C          7.29089         9.79712        -1.09066
C          7.26701        12.97041        -1.22706
C          6.08298        14.93381        -0.19136
C          6.10765        16.30182        -0.18426
C          7.35936        14.13217        -0.21840
C          7.32762        17.14237        -0.53069
C          6.13170        19.11640         0.48023
C          7.34184        18.45851         0.25870
C          8.74625         2.13226         0.72076
C          8.69302         3.54577         0.41819
C          9.96893         1.45624         0.82523
C         10.00048         4.31105         0.40786
C          8.67072         6.42822         0.17063
C          8.63766         7.83135        -0.36809
C          9.85490         5.62455        -0.39365
C          9.78824         8.48726        -0.67003
C          8.57001        10.65203        -1.05503
C          8.56643        12.13748        -1.22168
C          9.75706         9.97054        -0.36185
C          9.87817        12.94251        -1.20619
C          8.60836        14.98806        -0.38975
C          8.60961        16.34389        -0.38507
C          9.90669        14.21280        -0.32286
C          9.87546        17.13148        -0.40184
C          8.55549        19.05510         0.63957
C          9.84539        18.58390         0.14877
C         11.30234         2.15424         0.70877
C         11.11289         3.40807        -0.16399
C         12.45362         1.34250         0.16243
C         12.41566         4.14383        -0.46245
C         11.19404         6.39918        -0.45285
C         11.03600         7.77212        -1.18879
C         12.27906         5.51100        -1.11772
C         12.34857         8.55787        -1.00968
C         11.09043        10.67211        -0.51931
C         11.13264        12.13819        -0.82534
C         12.33234         9.86905        -0.63943
C         12.45635        12.79226        -1.21550
C         11.14916        15.01910        -0.68163
C         11.16419        16.43712        -0.25219
C         12.44714        14.30435        -0.90023
C         12.33461        17.08249         0.02187
C         11.12053        19.15763         0.57382
C         12.33951        18.49422         0.38686
C         13.54177         1.95982        -0.35780
C         13.55080         3.40801        -0.63343
C         14.79290         1.16302        -0.69603
C         14.78381         4.06239        -1.25148
C         13.59605         6.29729        -1.21021
C         13.62094         7.79743        -1.27395
C         14.84314         5.54685        -0.83997
C         14.98022         8.45701        -1.17822
C         13.51972        10.65520        -0.18117
C         13.62763        12.06581        -0.59651
C         15.12644         9.79014        -1.68895
C         14.82151        12.75593        -0.51926
C         13.65688        14.91263        -0.30522
C         13.57774        16.27849         0.35798
C         14.80580        14.17932        -0.18822
C         14.88500        17.03542         0.03561
C         13.58864        19.12547         0.64757
C         14.84249        18.45809         0.56397
C         15.99145         1.97447        -0.25499
C         16.07806         3.32215        -0.90205
C         16.95828         1.53577         0.57200
C         17.36720         4.07317        -0.85349
C         16.13487         6.29357        -0.69639
C         16.14430         7.76989        -0.87920
C         17.38644         5.57245        -1.22915
C         17.48376         8.45588        -0.67194
C         16.25880        10.64971        -1.31188
C         16.11800        12.08891        -0.81605
C         17.52538         9.94379        -0.98993
C         17.36567        12.66018        -0.22977
C         15.94409        14.73023         0.65801
C         16.09040        16.24895         0.53730
C         17.25791        13.96717         0.48096
C         17.18805        16.85544         1.04270
C         16.01040        19.09013         0.93583
C         17.28397        18.35601         1.28030
C         17.95474         2.54044         1.11786
C         18.49724         3.43331        -0.04492
C         19.14355         1.96691         1.86446
C         19.50577         4.44357         0.53855
C         18.69442         6.28861        -0.87464
C         18.72793         7.73600        -1.31676
C         19.75259         5.67550        -0.30145
C         19.98787         8.46605        -0.85925
C         18.68805        10.64186        -0.88240
C         18.70274        12.15948        -0.80243
C         19.99826         9.94727        -0.96800
C         19.87062        12.64873         0.12515
C         18.49930        14.79775         0.59332
C         18.32929        15.96652         1.57221
C         19.80868        14.16811         0.27913
C         19.71633        16.69862         1.79937
C         18.56138        18.80308         0.56626
C         19.51021        19.57769         1.16267
C         20.36162         2.53280         1.88261
C         20.78134         3.71076         1.01433
C         21.61973         4.75763         1.71555
C         21.13733         6.30906        -0.19088
C         21.10405         7.81358        -0.42285
C         21.76857         5.96236         1.14961
C         22.33436         8.54846        -0.17386
C         21.28288        10.71357        -0.71781
C         21.22763        12.15574        -0.32322
C         22.43737         9.89253        -0.30590
C         22.32487        12.93899        -0.14100
C         21.05176        14.91513         0.58629
C         20.86709        16.34490         0.89462
C         22.24973        14.30726         0.33249
C         21.69867        17.26356         0.31040
C         20.90136        19.69364         0.70422
C         21.77958        18.71166         0.37088
O         17.02097         3.26439        -2.02830
O          4.82816         8.77170         1.46465
O         11.77450        14.98891        -2.00950
O          5.99521         6.94147        -1.46360
O         11.22539        11.69689         0.54749
O         17.22645         5.68068        -2.63486
O          8.74014        11.22975        -2.38143
O          1.78639         8.09935        -1.58573
O         16.30809        11.79244        -2.23930
O         19.07403        14.98816        -0.73004
O         20.79802        10.49254        -2.09657
O         14.33815        10.17005         0.61694
O         17.27183        12.70963         1.22928
O          4.60407        16.68954         1.65036
O         19.88697        17.40831         2.77143
O         15.40415         5.80521         0.48151
O         13.62284         6.98399        -2.50495
O          9.84092        18.24864        -1.31492
O         17.95088        15.43050         2.79967
O          5.74435        11.40062        -2.24573
O          9.46857         5.28058        -1.73584
H          9.64449         6.06057        -2.32009
O         18.88587        12.69599        -2.11579
H         19.59250        12.16523        -2.55205
O         13.45616        16.10146         1.78383
H         14.19764        15.51682         2.10682
O         10.65066         2.88545        -1.42555
H         10.36948         3.65443        -1.98292
O         15.57925        14.50174         2.05050
H         16.39000        14.79297         2.58578
O         18.63776         7.84097        -2.73407
H         18.11812         7.02920        -3.03622
O         19.19795         2.54820        -0.94324
H         18.58977         2.39023        -1.70817
O         10.34396         4.62906         1.78599
H          9.65922         5.26218         2.13061
O         11.90951         5.20016        -2.48573
H         12.68503         4.72944        -2.88223
O         14.76766        -0.12298        -0.09182
H         14.74360        -0.00555         0.88002
O         18.97106         5.03216         1.77062
H         18.38368         5.78394         1.53897
O          7.35058         8.99882         1.29421
H          6.39675         9.04129         1.62638
O         14.95598        17.10447        -1.41095
H         15.76788        17.59392        -1.65871
O          8.80040         6.66818         1.61302
H          8.37668         7.55031         1.80886
O         21.57447         3.20365        -0.06726
H         20.97492         2.68421        -0.65313
O          9.46774        10.03466         1.05579
H          9.99001        10.77327         1.44672
O         19.74715        12.05074         1.43404
H         18.88648        12.33066         1.83609
O         21.96461         5.73675        -1.23257
H         21.50251         5.86081        -2.08767
O         11.66430         6.74213         0.85539
H         11.49375         5.97992         1.46346
O         10.79455         7.56820        -2.59329
H         11.55969         7.05665        -2.96194
O         17.15197         3.29559         2.05484
H         17.76010         3.90243         2.54043
O         14.32734        10.22404        -2.62472
H         14.61799        11.13213        -2.91049
O         17.69340         8.31791         0.76457
H         16.96499         8.77348         1.24001
O         19.20235        20.35607         2.23481
H         20.01087        20.76895         2.59423
O          7.29821         9.13360        -2.36414
H          7.24212         9.82675        -3.05714
O         10.02641        13.39735        -2.56185
H          9.64386        12.70976        -3.15181
O          3.77607         1.63460        -1.18040
H          2.96381         2.04697        -1.54774
O         12.66642        12.64455        -2.63948
H         12.14262        13.37218        -3.06155
O          5.02570         5.95053         1.91667
H          4.89435         6.93617         2.00956
O         14.61139         4.05717        -2.68469
H         15.49803         4.29984        -3.06006
O         10.10844        13.86799         1.06175
H          9.25963        13.49992         1.41030
O          7.12420        13.57496        -2.51486
H          6.81492        12.87180        -3.12923
O          4.75108        18.69263        -1.48000
H          5.60053        18.36904        -1.87723
O          7.44878        13.48434         1.09397
H          7.09409        14.10106         1.77042
O          1.80180         5.44569        -1.32604
H          1.72660         6.39138        -1.66147
O         17.38664        18.55585         2.69992
H         18.18862        18.07951         3.03123
O          4.38173         9.23077        -2.08991
H          4.36046         9.96332        -2.74257
O          6.14893         3.16360        -1.44639
H          5.36237         2.58445        -1.61578
O         11.68969         2.42963         2.08233
H         11.13018         3.17277         2.41494
O          7.22143        17.49816        -1.94135
H          8.06973        17.94839        -2.17577
H          0.54840         1.43298         1.50089
H          0.35047         3.82993         0.84646
H          2.61719         0.16952         1.04077
H          0.62225         5.85477         1.51717
H          0.56489         8.30542         1.25303
H          0.19992        10.08977         0.28238
H          0.22577        12.52398         0.48699
H          0.21444        14.43318         0.39573
H          0.24554        16.87159         0.64546
H          1.57677        18.99435         1.14101
H          5.06977         0.33454         1.22144
H          3.61578        20.26136         0.67578
H          7.53653         0.40266         1.28767
H          6.12143        20.04899         1.06482
H          9.95631         0.39544         1.12505
H          8.53138        19.95801         1.26788
H         12.48508         0.25845         0.35445
H         11.10984        20.14139         1.06691
H         14.84414         1.01114        -1.80719
H         13.58280        20.17747         0.97551
H         16.91345         0.51993         0.99521
H         15.95987        20.14036         1.26728
H         18.95251         1.08079         2.49290
H         18.86471        18.22118        -0.31623
H         21.15512         2.06488         2.48870
H         22.09958         4.52596         2.67918
H         22.37448         6.73235         1.65212
H         23.21798         7.97191         0.13453
H         23.37678        10.39979        -0.04152
H         23.32508        12.54262        -0.37105
H         23.19238        14.85354         0.47936
H         22.49889        16.82959        -0.31489
H         21.30683        20.72134         0.71147
H         22.77084        19.07507         0.04888
