         630
 CSIRO Nanostructure Databank - Neutral Graphene Oxide Data Set
C         22.93236        27.32246         0.74292
C         22.92267        28.69383         0.65952
C         22.90673        31.60257         0.34440
C         22.89099        32.96418         0.11348
C         22.85474        35.94202        -0.30389
C         22.90940        37.29073        -0.46228
C         22.98551        40.17176        -1.05049
C         23.00189        41.54451        -1.20239
C         23.04147        44.43965        -1.76181
C         23.17354        45.64325        -2.36430
C         25.39789        24.50398         0.79225
C         24.18951        25.18660         0.78645
C         25.38865        27.31922         0.65038
C         24.16131        26.59880         0.73044
C         25.37203        28.74453         0.56569
C         24.13283        29.44398         0.55833
C         25.35576        31.59757         0.32363
C         24.12647        30.88003         0.41666
C         25.33104        33.01770         0.08591
C         24.09084        33.68597        -0.06241
C         25.38474        35.87489        -0.51044
C         24.05396        35.11045        -0.46781
C         25.37169        37.34504        -0.43732
C         24.15181        38.02330        -0.58055
C         25.37853        40.18205        -0.53529
C         24.16102        39.45829        -0.71333
C         25.35707        41.60157        -0.63348
C         24.18632        42.28482        -0.98479
C         25.50694        44.39773        -1.37108
C         24.17100        43.81014        -0.98727
C         25.60319        45.70200        -1.86420
C         24.42680        46.36171        -2.36674
C         25.75688        48.32354        -2.89824
C         24.53891        47.64928        -2.90860
C         27.94650        23.08335         1.13601
C         27.90659        24.46879         0.83404
C         26.63044        25.18676         0.73064
C         27.85241        27.34020         0.51560
C         26.62827        26.60857         0.62775
C         27.85369        28.74150         0.49881
C         26.60842        29.46404         0.50389
C         27.84724        31.58439         0.43723
C         26.60051        30.87850         0.41641
C         27.79567        33.05501         0.48960
C         26.56536        33.76915         0.08632
C         27.81623        35.92207        -0.08126
C         26.60187        35.15223        -0.11104
C         27.83995        37.31844        -0.18271
C         26.60111        38.05870        -0.28363
C         27.85560        40.18432        -0.11878
C         26.60939        39.47319        -0.28856
C         27.86721        41.63242        -0.15789
C         26.57962        42.41052        -0.27381
C         27.97937        44.39867        -0.90141
C         26.75714        43.57716        -1.24077
C         28.02425        45.76003        -1.28199
C         26.86457        46.39983        -1.86510
C         28.14520        48.49849        -2.18780
C         26.92374        47.73678        -2.34351
C         28.33204        49.76888        -2.72752
C         30.38217        23.07564         1.06631
C         29.14621        22.40464         1.22807
C         30.36229        24.47572         0.82101
C         29.12091        25.15805         0.68266
C         30.37319        27.33775         0.53787
C         29.11676        26.58370         0.18878
C         30.33176        28.77925         0.53232
C         29.10897        29.47288         0.46505
C         30.34163        31.64646         0.39868
C         29.08032        30.91394         0.44396
C         30.36403        33.05792         0.34638
C         29.09952        33.80088         0.43248
C         30.38890        35.92754        -0.18535
C         29.08152        35.17794        -0.11506
C         30.32636        37.38739        -0.14223
C         29.10280        38.04389        -0.16013
C         30.32070        40.20343         0.14647
C         29.07723        39.49069        -0.06583
C         30.23470        41.65095         0.55977
C         29.03525        42.34703        -0.02302
C         30.30338        44.50202        -0.10644
C         29.09638        43.77276        -0.31212
C         30.34486        45.88528        -0.45451
C         29.20440        46.50194        -1.02379
C         30.53513        48.68680        -1.23255
C         29.20823        47.94006        -1.33217
C         30.68933        49.93274        -2.00997
C         29.55161        50.46351        -2.63680
C         32.91781        20.29861         1.29324
C         31.71123        20.96935         1.28518
C         32.86574        23.09736         0.96966
C         31.65003        22.37469         1.11781
C         32.83391        24.52931         0.84234
C         31.60299        25.20735         0.76243
C         32.82417        27.40727         1.03323
C         31.56107        26.65065         0.70300
C         32.79624        28.82008         0.53150
C         31.59008        29.50066         0.48591
C         32.80968        31.66006         0.41919
C         31.57184        30.94043         0.36605
C         32.79107        33.07447         0.52746
C         31.58587        33.79531         0.38320
C         32.77857        35.98599         0.46026
C         31.61371        35.23622         0.26801
C         32.82654        37.40207         0.27206
C         31.62900        38.12949        -0.28832
C         32.78146        40.27187         0.42713
C         31.54521        39.56444         0.15996
C         32.75432        41.70241         0.54657
C         31.52835        42.40414         0.41616
C         32.71449        44.53461         0.58833
C         31.51450        43.80897         0.31365
C         32.66939        46.01200         0.48071
C         31.57064        46.63910        -0.27997
C         32.99815        48.60410        -0.77186
C         31.72147        47.93963        -0.75873
C         33.20741        49.81316        -1.65773
C         31.95766        50.57693        -2.03169
C         33.30759        52.58919        -2.34885
C         32.11532        51.89159        -2.50827
C         35.48656        18.88987         1.32197
C         35.41249        20.28431         1.11160
C         34.14530        20.98799         1.12477
C         35.34756        23.12223         0.79515
C         34.11479        22.39831         0.96306
C         35.32557        24.54042         0.70013
C         34.08629        25.26065         0.75294
C         35.31931        27.38723         0.62298
C         34.09123        26.65896         0.71452
C         35.32365        28.80747         0.49208
C         34.05754        29.50638         0.08892
C         35.28738        31.68238         0.46131
C         34.05784        30.97615         0.40450
C         35.30951        33.09432         0.65340
C         34.02973        33.77854         0.86158
C         35.29133        36.00706         0.74008
C         34.01104        35.30284         0.89015
C         35.26122        37.41968         0.65502
C         34.01274        38.12439         0.48944
C         35.24366        40.30037         0.70989
C         34.01057        39.57637         0.51594
C         35.22060        41.72934         0.83098
C         33.97269        42.42517         0.74910
C         35.13206        44.55992         1.30021
C         33.90487        43.84801         0.88767
C         35.20520        46.07823         1.06966
C         33.97085        46.79804         0.61574
C         35.39690        48.69982        -0.17649
C         34.10686        48.04006        -0.16213
C         35.45566        50.07968        -0.53375
C         34.33586        50.70336        -1.18127
C         35.51241        52.90599        -1.18916
C         34.39225        52.03116        -1.61832
C         35.84361        54.13215        -1.95222
C         37.91452        18.90861         1.07707
C         36.70286        18.22725         1.32136
C         37.87618        20.30975         0.82967
C         36.62311        21.00260         0.88509
C         37.81254        23.14644         0.55425
C         36.58844        22.42464         0.74300
C         37.80106        24.55386         0.53791
C         36.55750        25.26481         0.63774
C         37.84236        27.41655         0.80657
C         36.54587        26.67543         0.63399
C         37.78358        28.86384         0.41685
C         36.54533        29.53857         0.42521
C         37.74837        31.70696         0.35478
C         36.53123        30.97949         0.37201
C         37.75007        33.13588         0.44477
C         36.51377        33.82818         0.63415
C         37.73638        35.99163         0.69250
C         36.50348        35.27562         0.71360
C         37.69857        37.40017         0.80593
C         36.48827        38.14248         0.72309
C         37.73302        40.28306         0.88472
C         36.48405        39.58071         0.76608
C         37.78082        41.79715         0.83177
C         36.44412        42.47548         1.07108
C         37.60125        44.66208         1.83479
C         36.41116        43.82556         1.33871
C         37.68132        45.97782         1.08410
C         36.53820        46.66657         0.75952
C         37.80225        48.74479         0.22875
C         36.57650        48.02969         0.23567
C         37.83066        50.14591         0.07821
C         36.64405        50.81409        -0.25477
C         37.95124        52.99011        -0.36881
C         36.65420        52.27805        -0.40329
C         37.87624        54.49486        -0.54486
C         36.95260        54.84342        -1.69816
C         40.51241        16.17097         1.37597
C         39.28370        16.83842         1.39221
C         40.37146        18.91336         0.70696
C         39.18626        18.20250         1.06628
C         40.33750        20.31442         0.41596
C         39.07926        21.02916         0.51575
C         40.24937        23.16458         0.05638
C         39.04952        22.43207         0.36055
C         40.24966        24.55314         0.02762
C         39.02437        25.28929         0.28908
C         40.19438        27.40432        -0.33384
C         39.02287        26.66910         0.25741
C         40.21551        28.87707        -0.01934
C         38.99690        29.57318         0.19834
C         40.20116        31.72458         0.05320
C         38.98525        31.00515         0.21537
C         40.19854        33.16972         0.09305
C         38.98077        33.85936         0.33505
C         40.19895        35.99094         0.32610
C         38.98870        35.28871         0.48292
C         40.25743        37.42154         0.66863
C         38.94842        38.13248         0.96543
C         40.23089        40.21832         1.24726
C         38.92861        39.59139         0.90160
C         40.20079        41.62501         1.75104
C         38.89970        42.37924         1.70696
C         40.24033        44.58544         1.94923
C         38.91495        43.85152         1.92528
C         40.23558        46.01001         1.44626
C         39.00301        46.56928         0.81227
C         40.33537        48.76658         0.48908
C         39.06541        48.01864         0.38081
C         40.36817        50.14573         0.32304
C         39.07534        50.92467         0.47017
C         40.39895        53.01686        -0.16169
C         39.12132        52.32811        -0.10505
C         40.42654        54.41882        -0.48308
C         39.22643        55.14966        -0.68237
C         40.48209        57.20595        -0.99803
C         39.26764        56.52659        -0.92212
C         42.97308        16.17970         1.00732
C         41.67408        16.82765         0.96415
C         42.77258        18.88335         0.14751
C         41.60405        18.20781         0.58852
C         42.75493        20.27543        -0.03341
C         41.52875        20.98716         0.08623
C         42.76709        23.17499        -0.15464
C         41.48101        22.41737        -0.39864
C         42.74144        24.54999        -0.02257
C         41.49795        25.29593        -0.07457
C         42.72958        27.45765        -0.09786
C         41.50506        26.68641        -0.09978
C         42.67559        28.85407        -0.20078
C         41.42268        29.58586        -0.17161
C         42.60950        31.77011        -0.51986
C         41.40096        31.01273        -0.15939
C         42.64649        33.22531        -0.32758
C         41.42085        33.89888        -0.06239
C         42.65237        36.04250        -0.13116
C         41.42263        35.32374         0.02163
C         42.64558        37.52156        -0.17434
C         41.34351        38.28761         0.05180
C         42.71670        40.23126         0.98431
C         41.50413        39.59506         0.81121
C         42.77246        41.59592         1.59229
C         41.50094        42.35787         1.91506
C         42.73795        44.48902         1.68600
C         41.53340        43.83565         1.84863
C         42.74302        45.97473         1.56622
C         41.51389        46.67423         1.10363
C         42.81680        48.69034         0.41583
C         41.53879        47.98889         0.67919
C         42.82964        50.16203         0.31406
C         41.61343        50.87006         0.24037
C         42.85343        53.00291        -0.12704
C         41.61090        52.31348         0.02878
C         42.90288        54.39522        -0.38279
C         41.67480        55.10828        -0.56458
C         42.94764        57.20125        -0.88476
C         41.69075        56.51118        -0.82340
C         44.07072        16.77423         0.49483
C         45.22755        18.83609        -0.45087
C         43.94634        18.04791        -0.30710
C         45.16993        20.27653        -0.53516
C         43.99789        20.98302        -0.32826
C         45.22883        23.11971        -0.22136
C         44.01862        22.44965        -0.24447
C         45.30271        24.55951         0.06253
C         43.98684        25.31268         0.18400
C         45.22867        27.42928        -0.16276
C         44.00387        26.77268        -0.02776
C         45.26119        28.89916        -0.10929
C         43.92643        29.62053        -0.10632
C         45.17923        31.80401        -0.49965
C         43.92573        31.03324        -0.56222
C         45.11776        33.18732        -0.52967
C         43.87399        33.91420        -0.38052
C         45.13697        36.07063        -0.11436
C         43.88337        35.35544        -0.23806
C         45.18902        37.43707         0.10579
C         43.95815        38.24713         0.01399
C         45.21009        40.20788         0.83647
C         43.97101        39.61013         0.59111
C         45.24229        41.57925         1.40061
C         44.00739        42.38397         1.42940
C         45.29237        44.48515         1.51435
C         44.01457        43.76599         1.57163
C         45.32005        45.91430         1.41129
C         44.05390        46.66786         1.39958
C         45.34371        48.78077         0.90905
C         44.10811        47.99525         0.71933
C         45.29852        50.17610         0.65853
C         44.09204        50.82352         0.32746
C         45.41792        53.02129        -0.03109
C         44.10610        52.24231        -0.09508
C         45.36953        54.48752        -0.07713
C         44.15186        55.12786        -0.39127
C         44.11934        56.53935        -0.66214
C         47.66345        18.90192        -0.77418
C         46.42976        18.18906        -0.57726
C         47.69295        20.25253        -0.90791
C         46.40376        21.03914        -0.97049
C         47.73879        23.15801        -0.63439
C         46.52905        22.35237        -0.19938
C         47.71311        24.59529        -0.59046
C         46.51833        25.31572        -0.31191
C         47.66490        27.46582        -0.73781
C         46.47821        26.72729        -0.37714
C         47.65508        28.92945        -0.82998
C         46.45941        29.65275        -0.53870
C         47.64016        31.79547        -0.80908
C         46.42370        31.06093        -0.60558
C         47.63740        33.20977        -0.76788
C         46.35118        33.99910        -0.83352
C         47.66472        36.07669        -0.34252
C         46.42142        35.27173         0.00873
C         47.65248        37.47583        -0.13626
C         46.44854        38.15196         0.21219
C         47.71919        40.25991         0.61497
C         46.45002        39.54253         0.53792
C         47.77558        41.62613         1.00484
C         46.55617        42.31389         1.45912
C         47.76831        44.46701         1.40400
C         46.51867        43.78573         1.44164
C         47.76109        45.92477         1.61482
C         46.50641        46.65615         1.37890
C         47.80547        48.81261         1.16738
C         46.53526        48.08794         1.22141
C         47.81037        50.21219         0.99716
C         46.51254        50.97587         1.08656
C         47.78057        53.08425         0.66058
C         46.60971        52.36534         0.52322
C         47.76140        54.50619         0.42660
C         46.59755        55.17849         0.14734
C         50.22536        20.35900        -0.89171
C         48.93869        21.01526        -1.30391
C         50.15624        23.21213        -1.03631
C         48.91729        22.48793        -0.92300
C         50.14252        24.63007        -1.05557
C         48.90349        25.32610        -0.87928
C         50.06225        27.43358        -1.46054
C         48.85226        26.74636        -0.96744
C         50.02699        28.92820        -1.60542
C         48.82543        29.65794        -1.15239
C         50.06502        31.83686        -1.22028
C         48.85694        31.08405        -1.06087
C         50.07803        33.22484        -1.00955
C         48.84307        33.93533        -0.81477
C         50.10064        36.09819        -0.91093
C         48.82612        35.37467        -0.71390
C         50.13357        37.59367        -0.74481
C         48.81229        38.35029        -0.57964
C         50.16684        40.29178         0.32172
C         48.92179        39.62509         0.21909
C         50.20399        41.66490         0.70599
C         48.98567        42.35138         0.98374
C         50.24212        44.49409         1.18643
C         48.98784        43.77704         1.24111
C         50.28443        45.90460         1.23730
C         49.07274        46.68059         1.50665
C         50.27423        48.79232         0.98272
C         49.04782        48.11733         1.18642
C         50.28151        50.23359         0.93132
C         49.03679        50.93688         0.95562
C         50.25330        53.04698         0.99898
C         49.03517        52.37250         0.92505
C         51.37088        21.07082        -0.82660
C         52.62829        23.21687        -1.09886
C         51.39528        22.50258        -1.03246
C         52.62202        24.64302        -1.19514
C         51.38269        25.35406        -1.19948
C         52.59493        27.49521        -1.40676
C         51.37213        26.75504        -1.36018
C         52.59556        28.92837        -1.52087
C         51.33285        29.65269        -1.73746
C         52.60884        31.85612        -1.42277
C         51.32301        31.15467        -1.60828
C         52.56851        33.23397        -1.20090
C         51.33954        33.95074        -1.00387
C         52.60643        36.06934        -0.69359
C         51.36598        35.34151        -0.84527
C         52.60753        37.49593        -0.37523
C         51.41105        38.22757        -0.32241
C         52.65087        40.27204         0.25989
C         51.41064        39.59801         0.06877
C         52.67378        41.66704         0.57953
C         51.45194        42.36454         0.77550
C         52.70683        44.47802         0.99577
C         51.46499        43.77261         1.00083
C         52.71235        45.88948         1.00156
C         51.50313        46.61723         1.05278
C         52.75995        48.75456         0.97455
C         51.50414        48.05593         0.95501
C         52.80194        50.23212         0.63710
C         51.50393        50.95990         0.90960
C         51.46988        52.34988         0.98452
C         55.07226        23.24800        -1.13494
C         53.88278        22.54700        -1.08302
C         55.10512        24.65782        -1.21430
C         53.85383        25.37101        -1.24779
C         55.09640        27.54833        -1.08668
C         53.82462        26.78479        -1.31652
C         55.04090        28.97374        -1.55070
C         53.82480        29.66623        -1.55013
C         55.07835        31.81144        -1.50035
C         53.83739        31.12808        -1.56187
C         55.10628        33.28056        -1.49555
C         53.80064        34.01823        -1.31645
C         55.09661        35.97134        -0.31188
C         53.80852        35.39539        -0.82015
C         55.10212        37.47257        -0.30196
C         53.86889        38.16695        -0.18151
C         55.12875        40.24679         0.26538
C         53.88111        39.56654         0.09467
C         55.15254        41.63566         0.59091
C         53.92521        42.35494         0.71987
C         55.19945        44.43460         1.16252
C         53.94807        43.75420         0.94519
C         55.22068        45.87077         1.25336
C         54.00465        46.61033         0.76452
C         55.16533        48.74039         1.70712
C         53.94495        48.06622         1.13331
C         55.15002        50.23407         1.51648
C         54.05112        50.90666         1.15241
C         57.61188        24.69064        -1.29482
C         56.36308        25.37331        -1.30064
C         57.58286        27.47745        -1.51112
C         56.36404        26.78877        -1.40500
C         57.61530        28.92705        -1.78665
C         56.29021        29.69446        -1.81079
C         57.57068        31.82689        -1.53616
C         56.32468        31.14081        -1.58412
C         57.59711        33.25697        -1.33834
C         56.37418        33.97955        -1.19177
C         57.59045        36.04951        -0.73728
C         56.36132        35.32953        -0.84189
C         57.58425        37.44895        -0.42350
C         56.33767        38.15087        -0.21815
C         57.60017        40.23680         0.24810
C         56.35337        39.54731         0.08446
C         57.61857        41.58575         0.68667
C         56.39986        42.29901         0.83113
C         57.66815        44.33578         1.54603
C         56.39522        43.68174         1.20088
C         57.67493        45.87566         1.63890
C         56.40955        46.59170         1.40873
C         57.68643        48.67860         1.25852
C         56.45307        48.01942         1.36802
C         58.80838        25.37855        -1.30126
C         60.03643        27.54494        -1.32959
C         58.82175        26.79229        -1.40023
C         60.03747        28.92508        -1.33193
C         58.85018        29.67998        -1.54363
C         60.03356        31.85522        -1.49890
C         58.81578        31.10303        -1.55245
C         60.04327        33.21672        -1.35791
C         58.82639        33.95765        -1.22728
C         60.03415        36.12185        -0.91898
C         58.82171        35.37094        -0.97970
C         60.02877        37.46318        -0.64000
C         58.81057        38.16953        -0.38617
C         60.02554        40.35427        -0.17323
C         58.82167        39.56176        -0.07242
C         60.08014        41.62088         0.30169
C         58.94754        42.16909         1.12916
C         60.11240        44.41592         1.27186
C         58.94771        43.67559         1.25535
C         60.12273        45.83373         1.31201
C         58.94061        46.57642         1.37324
C         58.89448        47.97994         1.18239
O         28.40917        33.64656         1.71440
O         57.66204        45.03978         2.83274
O         44.94033        52.41170        -1.30076
O         44.66729        29.43399         1.13874
O         33.91826        34.53293         2.13140
O         43.18966        31.27590        -1.79780
O         43.33876        38.10629        -1.33049
O         56.96136        29.26853        -3.06254
O         45.98535        41.69301         2.67097
O         35.56894        53.00902         0.28098
O         42.29738        41.75246         2.97506
O         38.15228        42.12345        -0.49641
O         38.66789        42.90694         3.04403
O         29.52036        48.79887        -0.17682
O         39.20436        46.90267        -0.59355
O         39.87776        37.66752         2.03509
O         49.80057        28.06870        -2.77556
O         48.47189        46.36979         2.82355
O         51.29604        30.51073        -2.93772
O         50.17842        37.01268        -2.09576
O         54.43280        33.88214        -2.66195
O         24.76149        35.34734        -1.73023
O         35.00405        45.53095         2.38909
O         40.14156        40.51889         2.70041
O         43.60192        48.01313        -0.65422
O         44.74730        24.91441         1.38348
O         43.38030        46.68609         2.70570
O         32.96853        46.81299         1.67409
O         40.19247        45.71235         2.88036
O         29.78887        35.30216        -1.39096
O         33.68155        49.23500        -2.94433
H         33.85272        49.98724        -3.55093
O         54.17443        46.63556        -0.72117
H         53.32263        46.94097        -1.10256
O         37.31167        45.04580         3.19906
H         37.50885        44.26696         3.76753
O         32.83694        27.52129         2.51543
H         32.03767        28.02898         2.77392
O         46.75630        22.00120         1.19727
H         46.61648        22.80721         1.73861
O         38.06851        27.46060         2.28144
H         37.99283        26.53909         2.61146
O         34.04428        29.41480        -1.40417
H         33.22037        29.85020        -1.71302
O         55.03434        48.53467         3.16225
H         54.19503        48.95420         3.44794
O         31.87957        38.17662        -1.74648
H         31.05887        38.49734        -2.17789
O         46.20960        34.44754        -2.21275
H         46.10940        33.65825        -2.78503
O         23.95543        44.20827         0.41461
H         24.75321        43.90022         0.91727
O         52.92499        50.25254        -0.82954
H         53.76056        49.79339        -1.06095
O         46.54362        34.86014         1.39766
H         46.55913        35.66501         1.95648
O         41.35639        22.32351        -1.86771
H         40.55733        21.78775        -2.05910
O         55.16767        27.68439         0.41304
H         55.14961        26.77294         0.77905
O         43.60768        17.62338        -1.68072
H         42.77293        17.11059        -1.62678
O         59.16510        41.67068         2.50269
H         59.15755        40.69088         2.45826
O         48.42521        38.82620        -1.90856
H         48.75126        38.14814        -2.54835
O         46.19954        21.40750        -2.37656
H         45.81635        20.62860        -2.83391
O         29.12468        26.48592        -1.28910
H         28.31966        25.98958        -1.55019
O         55.10168        35.59156         1.13415
H         55.88047        36.02871         1.54206
O         37.28299        55.04440         0.66847
H         36.43936        54.54831         0.81636
O         40.81490        38.63440        -1.25701
H         41.59308        38.81916        -1.83465
O         38.95624        51.12576         1.92154
H         38.18340        51.70831         2.08341
O         39.98281        27.36110        -1.80115
H         40.01659        26.41844        -2.07298
O         26.34327        43.00131         1.04616
H         26.52528        42.31858         1.72613
O         29.96674        41.63043         2.01824
H         30.77113        41.28124         2.45866
O         26.99206        42.97769        -2.55905
H         27.09449        43.70727        -3.20602
O         46.29318        51.19128         2.54041
H         46.33724        50.31302         2.97739
O         48.92413        21.02502        -2.77438
H         48.03382        21.36951        -3.03149
H         21.98675        26.76607         0.81460
H         21.95498        29.21213         0.66887
H         21.94688        31.07891         0.43654
H         21.92435        33.47783         0.02370
H         21.89540        35.46718        -0.05424
H         21.97501        37.86252        -0.37546
H         22.04484        39.63148        -1.21995
H         22.06936        42.05559        -1.47468
H         22.05233        43.96116        -1.74060
H         22.31033        46.10955        -2.86332
H         25.37845        23.40750         0.84725
H         23.24301        24.62966         0.83517
H         25.79564        49.34763        -3.29236
H         23.64741        48.14061        -3.32428
H         27.01442        22.52399         1.28912
H         27.52842        50.23638        -3.31311
H         29.12372        21.32777         1.44072
H         29.62286        51.42427        -3.16440
H         32.90846        19.20841         1.42105
H         30.78813        20.38734         1.40518
H         33.35574        53.63436        -2.68129
H         31.25461        52.43101        -2.92682
H         34.57540        18.30625         1.50615
H         35.19351        54.41632        -2.79297
H         36.70597        17.14468         1.50357
H         37.17727        55.73288        -2.30612
H         40.56337        15.11623         1.68206
H         38.39128        16.27589         1.69620
H         40.50062        58.28958        -1.18172
H         38.32732        57.08478        -1.02971
H         43.04674        15.20145         1.50631
H         42.94900        58.27915        -1.10160
H         45.04338        16.26560         0.55604
H         45.06396        57.09699        -0.71158
H         48.58621        18.30639        -0.81824
H         46.48058        17.09311        -0.52850
H         48.68580        55.08643         0.54452
H         46.62854        56.27388         0.07160
H         50.25493        19.27396        -0.72156
H         50.28523        54.14410         1.01638
H         52.30689        20.54981        -0.58207
H         52.40096        52.93187         0.98193
H         56.00899        22.67617        -1.12108
H         53.92346        21.45141        -1.03833
H         56.03891        50.79693         1.84110
H         54.10205        52.00456         1.09469
H         57.63978        23.59485        -1.23717
H         57.71201        49.77609         1.20579
H         59.76019        24.83303        -1.23156
H         60.98416        27.00098        -1.20852
H         60.99458        29.44569        -1.19175
H         60.99409        31.32970        -1.58078
H         61.01003        33.73550        -1.32320
H         60.99634        35.62629        -1.10225
H         60.98630        37.99847        -0.59851
H         60.89987        39.93790        -0.69302
H         61.00471        42.20317         0.18576
H         61.08223        43.90916         1.16866
H         61.08237        46.35944         1.20198
H         59.83341        48.53001         1.02437
