         276
 CSIRO Nanostructure Databank - Neutral Graphene Oxide Data Set
C        -11.13247         0.73310        -0.02355
C         -9.92722         1.50346         0.22339
C         -8.73829         0.80463         0.48405
C         -7.62696         1.48648         1.15158
C         -6.29548         0.76565         1.45077
C         -5.15120         1.37122         0.60025
C         -3.81229         0.71411         0.98381
C         -2.68642         1.34083         0.22357
C         -1.83980         0.43288        -0.32655
C          0.07788         1.43938        -0.75306
C          1.27537         0.76927        -0.54005
C          2.44425         1.45188        -0.84654
C          3.73800         0.77626        -0.62939
C          5.05490         1.49015        -0.87973
C          6.28003         0.72630        -0.49953
C          7.43137         1.40468         0.20338
C          8.73461         0.68262         0.24745
C          9.99149         1.47175         0.37330
C         11.18915         0.65055         0.47920
C         -9.93905         2.94215         0.22009
C         -8.78946         3.69316         0.42544
C         -7.62410         3.01340         1.02922
C         -6.29045         3.71156         0.98965
C         -5.05760         2.89694         0.72598
C         -3.88647         3.54678         0.02567
C         -2.53151         2.87264         0.24731
C         -1.44463         3.42720        -0.72971
C         -0.03130         2.87595        -0.37009
C          1.11642         3.54687        -1.12825
C          2.22226         2.77400        -1.40578
C          4.08611         3.89042        -1.17376
C          5.05649         2.95940        -0.55381
C          6.19196         3.63983         0.12248
C          7.43226         2.88839         0.46430
C          8.72218         3.64080         0.61561
C          9.97630         2.84150         0.48472
C         -8.73037         5.12440         0.22078
C         -7.57827         5.86811         0.37429
C         -6.29305         5.19271         0.67896
C         -5.04574         5.85687         0.18223
C         -3.89184         5.01046        -0.25938
C         -2.56447         5.72837        -0.30064
C         -1.38791         4.98113        -0.86282
C         -0.12754         5.76543        -1.18261
C          1.18076         5.03246        -0.97140
C          2.47621         5.77011        -0.76401
C          3.80669         5.10355        -0.64720
C          4.87548         5.78996         0.19857
C          6.24425         5.12941        -0.17383
C          7.46977         5.82879         0.36964
C          8.64545         5.13886         0.54312
C         -7.50392         7.31186         0.25184
C         -6.32180         7.99209         0.05412
C         -5.07684         7.25588        -0.40591
C         -3.77337         7.97881        -0.11000
C         -2.50336         7.21923        -0.09874
C         -1.15373         7.97249        -0.22729
C         -0.14866         7.33695        -1.23206
C          1.23290         8.02300        -1.05386
C          2.52872         7.25504        -0.94986
C          3.79247         7.94009        -0.54486
C          4.90353         7.26960        -0.11515
C          6.15396         7.95400         0.21443
C          7.33355         7.27262         0.46274
C         -6.22834         9.42746         0.19655
C         -5.03039        10.07566         0.23117
C         -3.75607         9.37727         0.08260
C         -2.53977        10.07614         0.13208
C         -1.31783         9.48102        -0.53182
C          0.00247        10.19541        -0.16851
C          1.27711         9.44707        -0.57697
C          2.47559        10.05271        -0.40641
C          3.81435         9.43505        -0.79241
C          4.98744        10.09357        -0.10942
C          6.07767         9.40819         0.29467
C        -11.13082        -0.62632        -0.13785
C         -9.87548        -1.35537        -0.35549
C         -8.57418        -0.54575        -0.03949
C         -7.30638        -1.30823         0.20310
C         -6.31163        -0.75871         1.17393
C         -5.03873        -1.54445         1.31851
C         -3.75425        -0.74888         1.35978
C         -2.46184        -1.53490         1.18094
C         -1.47351        -0.83248         0.29763
C         -0.12922        -1.13088         0.34351
C          1.09394        -0.75620        -0.51038
C          2.41373        -1.50139         0.03907
C          3.70129        -0.71255        -0.31029
C          4.93758        -1.49025        -0.79149
C          6.20034        -0.77360        -0.31468
C          7.49833        -1.49812        -0.29392
C          8.81396        -0.70521        -0.46225
C          9.97592        -1.49918         0.11760
C         11.15580        -0.71572         0.46482
C         -9.74846        -2.80896        -0.31315
C         -8.50982        -3.47785        -0.42086
C         -7.21199        -2.76287        -0.17121
C         -6.04640        -3.57561         0.32756
C         -4.94645        -2.98725         0.87790
C         -3.78651        -3.78182         1.56560
C         -2.40923        -3.06310         1.40622
C         -1.23028        -3.87601         0.92677
C         -0.03666        -3.24729         0.66624
C          0.97225        -3.68142        -0.42315
C          2.34007        -2.94063        -0.50996
C          3.62002        -3.69615        -0.75662
C          4.91378        -2.98410        -0.30490
C          6.21375        -3.68701        -0.74610
C          7.51805        -2.94676        -0.70140
C          8.83723        -3.70770        -0.50457
C          9.91865        -2.85900         0.16421
C         -8.47170        -4.84597        -0.69167
C         -7.13161        -5.47171        -0.98152
C         -6.25677        -5.07685         0.26865
C         -4.94565        -5.87694         0.41607
C         -3.76366        -5.26364         1.10694
C         -2.47099        -6.07989         1.09304
C         -1.11743        -5.39137         1.09033
C         -0.23958        -5.89360        -0.11146
C          1.11619        -5.16059        -0.10987
C          2.42185        -5.87446        -0.14671
C          3.59741        -5.25014        -0.90483
C          4.94522        -5.93288        -0.57121
C          6.24369        -5.18160        -0.56128
C          7.45705        -5.76191         0.10228
C          8.60372        -5.04945         0.17888
C         -7.12830        -6.96523        -1.18730
C         -6.14705        -7.84164        -0.44755
C         -4.77395        -7.07694        -0.54080
C         -3.48284        -7.98554        -0.38116
C         -2.45783        -7.50514         0.63978
C         -1.10099        -8.22915         0.48440
C         -0.09915        -7.40476        -0.31502
C          1.18972        -8.10779        -0.55873
C          2.37476        -7.39316         0.05672
C          3.69302        -8.08304        -0.05906
C          4.90856        -7.24762         0.22749
C          6.22132        -8.03135         0.07836
C          7.39162        -7.18395         0.65326
C         -6.05750        -9.26940        -0.93266
C         -4.96040       -10.03262        -0.71407
C         -3.68121        -9.48399        -0.29491
C         -2.54840       -10.24707        -0.15158
C         -1.21911        -9.65108        -0.03366
C         -0.07282       -10.32291        -0.33634
C          1.26724        -9.64490        -0.62080
C          2.48870       -10.19744         0.08528
C          3.68061        -9.48254         0.18983
C          4.92403       -10.07863         0.70052
C          6.08194        -9.38888         0.74599
O         -3.62063         0.31312         2.36118
O         -0.99923         5.28333        -2.23927
O         -4.17234         4.04665        -1.31683
O          1.63537         5.39769         0.40948
O         -2.36156         6.26445         1.04734
O          6.74342        -1.27651         0.94141
O          6.00909         1.10683        -1.89382
O          6.84675        -3.21945        -1.96640
O          1.96914        -5.24063         1.07597
O         -6.03324        -1.48396         2.39948
O         -0.92817         0.77382        -1.34781
O          7.89154         0.71023         1.40884
O          5.04937         3.19379         0.91238
O         -4.73974        -6.08958         1.82380
O          0.38176        -7.63566        -1.69220
O          3.90735         0.24687         0.75797
O          3.24957         3.34683        -2.15631
O         -0.43319        -8.26887         1.74657
O         -2.67456        -7.20452         2.02045
O         -2.08656        -2.11796         2.46956
O          5.80650        -5.93647        -1.74131
O          7.91500         3.20734         1.79777
O         -5.37816         5.89526         1.58900
O          2.04479         7.74790        -2.25873
O          2.91589        -3.04358        -1.84633
O         -5.35394         3.38385         2.06078
O          0.15887        -2.04701         1.33774
O          0.89266        -0.99315        -1.83888
O         -8.00067         2.34963         2.27350
O         -9.05296        -0.71779        -1.39121
O         -6.74373        -1.72861        -1.08682
O          9.03203        -0.46533        -1.80945
O          4.61584         5.69988         1.60207
H          4.56102         4.74496         1.84139
O          0.32751        -3.51741        -1.69040
H          0.51630        -2.59379        -2.02782
O         -2.14817         3.21899         1.58552
H         -2.76793         2.79933         2.22071
O         -5.44199         1.05230        -0.77161
H         -4.77946         1.47921        -1.35678
O          6.38041         5.21201        -1.62204
H          6.58264         6.14168        -1.86128
O         -2.70817        -7.82977        -1.62014
H         -2.98033        -8.52988        -2.25043
O          0.28139         2.99691         1.02588
H          0.65900         3.88991         1.19927
O          2.42325        -1.60215         1.45323
H          2.86139        -0.80626         1.83061
O          1.52398        -9.96936        -2.02510
H          1.00497        -9.31901        -2.55351
O         -0.57075         7.65180        -2.55733
H          0.17194         7.44716        -3.16522
O         -5.15526         7.10651        -1.85363
H         -5.06803         7.99432        -2.26024
O          4.95613        -1.42830        -2.21649
H          4.18709        -1.94201        -2.56285
O          6.45877        -8.31611        -1.31102
H          7.34142        -8.73753        -1.37320
O          9.37434        -4.02960        -1.81326
H          9.25424        -3.23898        -2.38336
O         -6.01056         0.92418         2.82930
H         -6.42912         1.76084         3.13844
O          8.62607        -7.86490         0.38963
H          8.99829        -7.51721        -0.44723
O         -1.60360         9.73282        -1.92115
H         -1.25701        10.63595        -2.10732
O         -6.45934        -7.92791         0.95934
H         -7.30857        -8.40406         1.05910
O         -7.09327        -5.37742         1.40282
H         -6.47639        -5.60530         2.14438
O         -6.65126        -4.82652        -2.16985
H         -5.77938        -5.23152        -2.39926
O          4.81013        -6.87930         1.63119
H          3.85953        -6.87276         1.90775
O         -0.49998         7.93129         1.05622
H         -0.88467         7.17762         1.56793
O         -0.04652        11.47780        -0.80731
H          0.84205        11.88788        -0.77456
O          3.99381         9.66386        -2.22208
H          3.30451         9.12180        -2.67694
O         -1.03084        -5.48210        -1.24662
H         -0.54285        -5.74032        -2.05995
O         -0.46266        -5.63458         2.32865
H         -0.55117        -6.61479         2.50160
O          2.14650        -7.63141         1.48880
H          1.15389        -7.83187         1.67361
O         -4.10137        -3.78939         2.96002
H         -3.64058        -3.02449         3.37614
O          4.85283        -3.05790         1.12620
H          5.55042        -2.46474         1.50313
O         -1.81678         2.92885        -2.01569
H         -1.53956         3.58373        -2.69763
O          3.32144        -5.56242        -2.27835
H          4.17158        -5.49541        -2.77207
O         -4.69331        -6.51298        -1.86457
H         -3.74051        -6.54486        -2.14020
H         12.08864        -1.26841         0.66054
H         12.14452         1.16148         0.67454
H         10.93395         3.37873         0.57602
H          9.55466         5.69910         0.81722
H          8.22661         7.85576         0.73845
H          6.94160         9.94525         0.71545
H          4.97439        11.19183        -0.03549
H          2.50036        11.08978        -0.02906
H          0.03619        10.34410         0.94881
H         -2.56156        11.16742         0.28106
H         -5.00088        11.16360         0.38824
H         -7.15831         9.99296         0.36151
H         -8.43093         7.88812         0.40437
H         -9.65967         5.63246        -0.07901
H        -10.86068         3.44875        -0.10437
H        -12.09178         1.27042         0.01634
H        -12.07695        -1.18721        -0.13637
H        -10.67009        -3.41268        -0.30770
H         -9.38971        -5.45145        -0.64249
H         -7.33967        -7.27225        -2.22881
H         -6.97653        -9.74415        -1.31051
H         -4.99468       -11.11058        -0.93941
H         -2.62287       -11.34440        -0.22635
H         -0.13446       -11.37427        -0.66422
H          2.48273       -11.26385         0.36141
H          4.86822       -11.10484         1.09458
H          6.99196        -9.86596         1.14099
H          7.26439        -7.13713         1.76696
H          9.48264        -5.51887         0.65111
H         10.80031        -3.41501         0.52661
