         480
 CSIRO Nanostructure Databank - Neutral Graphene Oxide Data Set
C         38.01536        50.99199         3.33429
C         36.74330        51.48608         3.06346
C         37.70949        53.21399         1.68616
C         36.58476        52.58992         2.22063
C         40.61346        49.69480         3.55513
C         40.48875        50.95167         2.92565
C         39.17035        51.59268         2.78883
C         40.19992        53.50443         1.54140
C         39.00103        52.73962         1.96849
C         40.13620        54.52581         0.48647
C         42.83919        49.39879         2.63284
C         41.77828        48.95033         3.43658
C         42.79831        50.70006         2.07169
C         41.63376        51.49521         2.29036
C         42.75187        53.46766         1.11695
C         41.56532        52.88833         1.81177
C         42.57507        54.62067         0.23017
C         41.27086        55.07191        -0.07653
C         45.38047        46.56521         2.83975
C         44.24686        47.29039         3.04519
C         44.97103        48.96152         1.26077
C         43.90826        48.46276         2.21990
C         45.02896        50.40507         0.95677
C         43.94518        51.19525         1.31320
C         44.94274        53.02302        -0.16307
C         43.98794        52.62660         0.94507
C         44.99852        54.52130        -0.32065
C         43.77758        55.24662        -0.27101
C         44.97548        57.26871        -0.86313
C         43.77731        56.61969        -0.59951
C         47.67306        44.85617         2.27316
C         47.53162        46.12290         1.64356
C         46.35613        46.89042         1.83554
C         47.49059        48.81298         0.60428
C         46.19691        48.12550         1.07330
C         47.49796        50.27407         0.40934
C         46.27511        51.00208         0.44046
C         47.48401        53.03413        -0.29891
C         46.27973        52.35607         0.03334
C         47.46961        54.42825        -0.60170
C         46.21881        55.17486        -0.60177
C         47.48622        57.35677        -0.86686
C         46.19570        56.57791        -0.84401
C         47.47384        58.60845        -1.71757
C         49.85140        44.45049         1.25491
C         48.81974        44.08376         2.12344
C         49.83442        45.80365         0.53167
C         48.70103        46.70859         1.00297
C         50.01360        48.87917         0.84145
C         48.74175        48.06575         0.74752
C         49.97463        50.20069         0.10102
C         48.73017        50.91691         0.07261
C         49.95067        52.95173        -0.61688
C         48.72748        52.30286        -0.28332
C         49.96136        54.36440        -0.87943
C         48.70673        55.11836        -0.85779
C         49.94322        57.23510        -1.27275
C         48.69014        56.48805        -1.12435
C         49.91717        58.53397        -2.02848
C         48.59754        59.19439        -2.15478
C         52.55768        41.72650         1.08102
C         51.36996        42.39342         1.51079
C         52.50770        44.44369        -0.11256
C         50.82807        43.48964         0.85036
C         52.44175        45.82699         0.09654
C         51.19987        46.52200         0.55376
C         52.48499        48.73163         0.14517
C         51.26842        48.04195         0.62355
C         52.44875        50.10710        -0.21866
C         51.17699        50.82527        -0.26268
C         52.40195        52.86554        -0.98006
C         51.17743        52.21455        -0.64210
C         52.41166        54.26940        -1.23974
C         51.18593        55.00260        -1.12977
C         52.47152        57.12718        -1.67710
C         51.23152        56.46646        -1.24297
C         52.49044        58.52904        -1.84866
C         51.23835        59.22215        -2.26191
C         52.49138        61.34190        -2.39249
C         51.35600        60.65883        -2.59687
C         54.95235        40.03037         0.59987
C         54.84911        41.42745         0.13952
C         53.61216        42.24115         0.33203
C         54.90443        44.36984         0.00623
C         53.69081        43.66486         0.00316
C         54.88770        45.79371        -0.00323
C         53.67053        46.53810         0.08980
C         54.91699        48.63241        -0.26548
C         53.69731        47.97886         0.03367
C         54.98754        50.13894        -0.30330
C         53.64891        50.78103        -0.57496
C         54.86481        52.79354        -1.36343
C         53.64400        52.13856        -0.97435
C         54.83952        54.17179        -1.65948
C         53.64469        54.93184        -1.53871
C         54.87434        57.10256        -1.81408
C         53.66647        56.38318        -1.69191
C         54.92181        58.51456        -1.81052
C         53.70511        59.23421        -1.82618
C         55.00000        61.41174        -1.94807
C         53.66914        60.73734        -1.66144
C         55.07071        62.79896        -1.98733
C         57.41953        40.05189         0.44024
C         56.14399        39.37861         0.58130
C         57.43762        41.47737         0.35992
C         56.18543        42.15395        -0.04938
C         57.38861        44.35304         0.39072
C         56.21322        43.66301        -0.25920
C         57.38713        45.84341         0.24317
C         56.11444        46.51058        -0.08563
C         57.36252        48.47783        -0.81641
C         56.11229        47.88922        -0.28874
C         57.31522        49.84928        -1.38716
C         56.12295        50.70627        -1.14390
C         57.25753        52.65006        -2.33573
C         56.09950        52.01698        -1.52969
C         57.39566        54.12262        -1.98875
C         56.09736        54.85536        -2.04559
C         57.37500        57.06191        -1.71417
C         56.11349        56.34968        -2.03100
C         57.41424        58.52280        -1.90803
C         56.20008        59.22382        -1.90655
C         57.46449        61.33222        -2.06265
C         56.21005        60.65547        -1.98800
C         57.49421        62.75412        -2.14663
C         56.30488        63.46608        -2.11033
C         59.92980        37.24058         0.33964
C         58.72106        37.91681         0.27794
C         59.87832        40.01313         0.84694
C         58.63691        39.31396         0.47140
C         59.84312        41.50822         1.04018
C         58.62727        42.22426         0.59302
C         59.87249        44.39664         0.56816
C         58.67124        43.63114         0.47686
C         59.84993        45.80140         0.28807
C         58.66942        46.53052         0.02259
C         59.86565        48.54425        -0.84190
C         58.66553        47.84727        -0.51224
C         59.90909        49.84789        -1.37256
C         58.62212        50.48054        -1.76888
C         59.91771        52.61810        -2.33037
C         58.59984        51.88460        -2.24836
C         59.87262        54.10369        -2.23763
C         58.58087        54.79411        -1.98316
C         59.85627        57.01395        -2.09583
C         58.63839        56.26864        -1.73620
C         59.92840        58.42561        -1.99334
C         58.68216        59.18317        -1.93577
C         59.92655        61.29555        -1.70311
C         58.69529        60.59497        -1.98891
C         59.93180        62.70074        -1.58427
C         58.84209        63.41701        -2.35790
C         59.79898        65.54547        -1.46322
C         58.84630        64.90714        -2.17423
C         62.50106        35.79743         0.30521
C         62.43871        37.22607         0.44023
C         61.18064        37.90698         0.52059
C         62.37784        40.04665         0.69508
C         61.18135        39.32196         0.69545
C         62.32704        41.54006         0.47457
C         61.17041        42.26198         1.20127
C         62.34554        44.34415         0.57655
C         61.12502        43.70843         0.73313
C         62.40537        45.79744         0.31205
C         61.12071        46.54008         0.16619
C         62.41912        48.41397        -1.00757
C         61.11748        47.76898        -0.68714
C         62.42717        49.83416        -1.48830
C         61.14680        50.55424        -1.65325
C         62.44036        52.69245        -1.96855
C         61.19899        51.91355        -2.01872
C         62.44282        54.16489        -2.37482
C         61.14110        54.87617        -2.22257
C         62.76038        57.28142        -2.39087
C         60.94059        56.21026        -2.55463
C         62.50099        58.52148        -1.73617
C         61.17612        59.15231        -1.77187
C         62.19136        61.21048        -0.73426
C         61.09382        60.51557        -1.41889
C         62.15388        62.67904        -0.54023
C         60.96403        63.41476        -0.88562
C         61.58212        65.55825         0.24839
C         60.81638        64.83894        -0.70893
C         61.91619        66.93183         0.35943
C         64.94729        35.83776         0.21122
C         63.69014        35.13751         0.20334
C         64.92460        37.27686         0.44766
C         63.65583        37.95877         0.51741
C         64.86535        40.11686         0.81538
C         63.63594        39.38022         0.65017
C         64.83245        41.52188         0.99264
C         63.63035        42.24218         0.78876
C         64.81201        44.42186         0.81362
C         63.59544        43.63989         0.71383
C         64.84334        45.73505         0.43814
C         63.68327        46.30117        -0.34959
C         64.77927        48.56650        -0.28356
C         63.67240        47.81596        -0.48116
C         64.76007        50.07624        -0.38095
C         63.69268        50.64819        -1.31237
C         64.82810        52.91520        -1.03880
C         63.59862        52.11553        -1.46552
C         64.98977        54.17582        -1.86697
C         63.79637        54.94848        -2.37178
C         65.00822        57.19368        -1.71125
C         63.86580        56.45383        -2.16910
C         64.89741        58.51667        -1.18843
C         63.61397        59.12997        -1.12030
C         64.76248        61.21674        -0.35670
C         63.51287        60.46418        -0.52714
C         64.71101        62.71365        -0.42120
C         63.34270        63.27225        -0.07964
C         64.40506        65.32947         0.86800
C         63.31842        64.47900         0.63997
C         64.21325        66.63558         1.37092
C         63.02603        67.37648         1.08649
C         67.38611        33.05973        -0.20081
C         66.22959        33.76024        -0.30313
C         67.43619        35.95468        -0.08274
C         66.14772        35.16917        -0.01557
C         67.38668        37.20259         0.84227
C         66.11599        37.98919         0.62932
C         67.35151        40.10216         1.00522
C         66.12744        39.40770         0.82942
C         67.33487        41.44182         1.71360
C         66.03905        42.24911         1.48135
C         67.28715        44.52136         1.26369
C         66.01548        43.76675         1.38627
C         67.27750        45.86675         0.98597
C         65.96899        46.62007         0.88696
C         67.32473        48.65265         0.10672
C         66.06072        47.87209         0.03629
C         67.27405        50.11282        -0.13079
C         66.12626        50.71373        -0.55262
C         67.40529        52.86073        -0.92167
C         66.13511        52.07408        -1.21413
C         67.47377        54.17978        -1.41444
C         66.25656        54.61728        -2.09271
C         67.46262        57.27424        -1.42380
C         66.32252        56.75811        -2.00228
C         67.35910        58.58294        -0.85927
C         66.08928        59.21282        -0.78759
C         67.22694        61.37618        -0.18059
C         66.00942        60.61036        -0.42977
C         67.17522        62.74794         0.20385
C         65.79677        63.31510         0.49574
C         66.89858        65.41065         1.27349
C         65.77212        64.84144         0.45887
C         66.62933        66.56539         2.08389
C         65.34793        67.20937         2.09415
C         66.14328        68.74235         3.81839
C         65.14972        68.30912         2.94627
C         70.00589        31.67312        -0.40395
C         69.89884        33.07035        -0.31128
C         68.65225        33.65891         0.36229
C         69.93989        35.83238         0.43581
C         68.63996        35.15402         0.26344
C         69.86231        37.35009         0.46216
C         68.64489        38.01925         0.68064
C         69.84558        40.17176         0.77616
C         68.60928        39.42845         0.83409
C         69.85843        41.59022         0.93378
C         68.68372        42.30552         1.59743
C         69.77196        44.49143         0.78899
C         68.52306        43.72163         1.03606
C         69.77072        45.92401         1.31552
C         68.50870        46.64444         0.92342
C         69.78335        48.75757         0.80670
C         68.51696        47.99456         0.69909
C         69.76887        50.24091         0.57280
C         68.43202        50.96623         0.36499
C         69.76918        52.95864        -0.40676
C         68.54945        52.25323        -0.39962
C         69.77235        54.34761        -0.69666
C         68.62531        54.99875        -1.18153
C         69.88578        57.21942        -0.86077
C         68.75656        56.49583        -1.57310
C         69.81548        58.62851        -0.62537
C         68.55450        59.31970        -0.58049
C         69.68091        61.47011        -0.06851
C         68.48284        60.70489        -0.25229
C         69.61006        62.88576         0.17542
C         68.32917        63.52801         0.45127
C         69.26745        65.60634         1.71923
C         68.17485        64.85829         1.10109
C         68.99889        66.57021         2.74555
C         67.66445        67.06096         2.93111
C         68.44985        68.55016         4.76595
C         67.40568        68.12213         3.84670
C         68.17688        69.42838         5.83896
C         72.10447        31.86823        -1.57742
C         71.09960        31.07188        -1.02642
C         72.02275        33.25635        -1.47031
C         70.94092        33.87389        -0.82153
C         72.22080        36.05239        -0.49571
C         70.88784        35.39032        -0.72600
C         72.27022        37.31961        -0.02710
C         71.06133        38.06265         0.29791
C         72.25242        40.23650         0.27319
C         71.06245        39.48740         0.45724
C         72.23203        41.61134         0.36817
C         71.05155        42.30123         0.72124
C         72.22738        44.51960         1.34873
C         71.12255        43.81386         0.60293
C         72.25031        45.87300         1.35938
C         71.06559        46.65314         1.02690
C         72.25883        48.77349         0.50782
C         71.06640        48.00478         0.74825
C         72.23864        50.11233         0.21717
C         71.03492        50.89920         0.14591
C         72.22567        52.93009        -0.71410
C         71.02963        52.23482        -0.24528
C         72.23556        54.27488        -0.83883
C         71.05311        55.05194        -0.30925
C         72.21158        57.26038        -0.15235
C         71.06380        56.54027        -0.54486
C         72.20309        58.64500        -0.11568
C         70.99752        59.35394        -0.30965
C         72.12714        61.55507        -0.20016
C         70.94059        60.80182        -0.17675
C         72.06797        62.94246        -0.14222
C         70.84177        63.58043         0.05790
C         71.65673        66.18488         1.92908
C         70.60413        65.54556         1.27165
C         71.39659        66.93369         3.07536
C         70.07131        67.17250         3.47514
C         70.77926        68.48492         5.48777
C         69.77410        68.07117         4.58520
C         70.48851        69.34669         6.53694
C         69.18088        69.82265         6.71274
O         63.20216        54.44787        -3.59859
O         56.05632        55.62921        -3.31005
O         59.64413        40.63481         2.19863
O         58.01234        56.64386        -0.45126
O         59.90769        53.40387        -3.56781
O         55.48813        41.54601        -1.18740
O         62.11022        64.77123         1.29439
O         69.83230        49.71002         1.95454
O         61.76484        47.52427        -1.99647
O         57.09436        48.69269        -2.27611
O         70.89625        64.97252         0.02971
O         43.91963        53.57350         2.03633
O         68.94122        44.08542        -0.34995
O         58.61591        50.79301        -3.22251
O         61.86442        56.86990        -3.36616
O         50.58264        58.43229        -3.33472
O         62.53838        60.56560         0.56708
O         66.93932        47.85771        -1.11854
O         40.99699        53.86672         2.73522
O         51.49446        47.19310         1.82061
O         50.73080        57.19938        -0.03158
O         51.34664        43.74296        -0.43589
O         66.44710        55.72178        -2.93909
O         61.91354        46.65019         1.40356
O         43.80224        48.22997         0.76336
O         65.75171        43.09076         2.65065
O         57.18229        45.17489         1.57172
O         46.59122        48.09467        -0.32652
O         63.42181        49.96157        -2.56093
O         69.18292        42.49728         2.90319
O         64.32610        50.56281         0.94748
H         64.92190        50.17150         1.62371
O         63.76264        45.72912        -1.67616
H         63.10009        46.20346        -2.23570
O         64.65528        53.28152         0.34655
H         64.52168        52.44295         0.85591
O         68.72839        33.29533         1.78930
H         68.84365        32.32304         1.84495
O         71.47620        44.04415        -0.80261
H         70.65204        43.88689        -1.31929
O         55.33920        50.53441         1.08370
H         54.61004        50.23271         1.66768
O         66.16130        51.77778        -2.64087
H         66.80959        51.06185        -2.80691
O         65.61700        47.12253         2.21791
H         65.44711        46.34915         2.79848
O         69.12889        56.49965        -2.98182
H         68.35398        56.14531        -3.47717
O         70.56612        35.37225         1.65819
H         69.91484        34.82049         2.15106
O         62.06044        41.71012        -0.95186
H         62.83129        41.36896        -1.45197
O         67.97096        51.38900         1.68777
H         68.44684        50.82023         2.34234
O         70.29229        35.90901        -1.94811
H         70.90735        35.74056        -2.69213
O         53.40818        60.97354        -0.23625
H         54.13844        60.56283         0.27306
O         44.35932        52.47299        -1.39146
H         45.01883        52.57018        -2.11010
O         61.48563        42.32715         2.60304
H         60.97200        41.61463         3.05217
O         49.55227        45.58565        -0.87547
H         48.66624        45.17406        -0.95162
O         56.46547        43.86650        -1.68365
H         55.94470        43.17889        -2.16142
O         65.46861        62.95449         1.85694
H         65.38200        61.97869         1.90663
O         67.56947        36.43807        -1.45701
H         68.50603        36.31185        -1.75218
O         59.15870        63.18495        -3.77762
H         60.04041        63.57694        -3.95114
O         69.73443        45.76398         2.76672
H         69.75800        46.65555         3.17316
O         50.03118        49.29040         2.25139
H         50.42903        48.53781         2.74960
O         67.27234        40.98601         3.08148
H         68.02253        41.48359         3.53629
O         67.34320        36.68625         2.20035
H         67.29227        37.45140         2.81220
O         66.00668        65.28659        -0.91889
H         66.06500        66.26541        -0.91252
O         56.83575        52.61639        -3.71406
H         57.26201        51.82824        -4.12538
O         71.13832        54.96198         1.15702
H         71.08797        54.01194         1.39875
O         47.66374        57.84664         0.51256
H         47.93605        57.08695         1.07024
O         64.97849        63.02333        -1.81507
H         65.34026        63.94208        -1.85962
H         38.10288        50.11589         3.99007
H         35.86318        50.99984         3.50625
H         37.57712        54.10353         1.05510
H         35.58190        52.97914         1.99834
H         39.77296        49.26043         4.11088
H         39.15395        54.85293         0.11862
H         41.82247        47.95578         3.90039
H         41.15231        55.86223        -0.83246
H         45.56966        45.70913         3.50170
H         43.58807        47.02403         3.88304
H         44.96057        58.35298        -1.03506
H         42.84140        57.19357        -0.56049
H         46.84478        44.44404         2.86242
H         46.51319        59.11355        -1.89331
H         48.86017        43.09206         2.59866
H         48.54606        60.12516        -2.73925
H         52.70284        40.72537         1.51666
H         50.87903        42.01534         2.41957
H         52.54863        62.39739        -2.69714
H         50.50467        61.13414        -3.10630
H         54.04108        39.47317         0.85833
H         54.15327        63.39895        -1.91285
H         56.15917        38.30787         0.83060
H         56.30964        64.56363        -2.15802
H         59.91617        36.15433         0.17999
H         57.80948        37.34409         0.05631
H         59.77534        66.64287        -1.38141
H         58.09652        65.49356        -2.72465
H         61.57118        35.21386         0.28885
H         61.28408        67.68640        -0.13367
H         63.68343        34.04405         0.10265
H         63.08461        68.46322         1.25934
H         67.38683        31.98707        -0.44663
H         65.32040        33.22266        -0.61324
H         65.92743        69.58912         4.48332
H         64.17161        68.80905         2.96696
H         69.21490        31.03569         0.01935
H         67.15457        69.79525         6.00316
H         72.96154        31.40657        -2.08618
H         71.16153        29.97698        -1.08951
H         72.82370        33.87317        -1.90328
H         73.15221        35.49565        -0.67608
H         73.24964        37.79763         0.11515
H         73.19315        39.72967         0.02230
H         73.14683        42.18775         0.17139
H         73.10073        43.94451         1.69032
H         73.14263        46.40624         1.72408
H         73.22508        48.24918         0.52524
H         73.19636        50.61265         0.01697
H         73.10881        52.34148        -1.00113
H         73.12653        54.80173        -1.21023
H         73.12548        56.71187         0.11521
H         73.12430        59.17669         0.15731
H         73.10032        61.06529        -0.33032
H         72.97657        63.54965        -0.24185
H         72.67524        66.10400         1.52865
H         72.23354        67.41168         3.60054
H         71.80594        68.10961         5.37934
H         71.28203        69.64992         7.23382
H         68.94942        70.49959         7.54658
