         762
 CSIRO Nanostructure Databank - Neutral Graphene Oxide Data Set
C         24.93403        25.36755        -5.32541
C         23.95107        26.13492        -5.87351
C         24.47019        28.09802        -4.48486
C         23.73956        27.49609        -5.48810
C         24.12440        29.41075        -3.94671
C         23.04973        30.15468        -4.37647
C         23.64710        32.40805        -3.59795
C         22.68984        31.47707        -3.87170
C         23.59945        33.74367        -2.98900
C         22.50371        34.55494        -3.32088
C         23.50857        36.44438        -2.18400
C         22.46210        35.88553        -2.92389
C         23.45377        37.94397        -1.98250
C         22.10725        38.42105        -1.46456
C         23.10441        40.31119        -0.22600
C         21.94805        39.54690        -0.75468
C         22.94527        41.68207         0.41367
C         21.65775        42.39337         0.42624
C         22.79266        44.56222         0.71631
C         21.61072        43.74636         0.51367
C         22.74137        45.97637         0.78979
C         21.58100        46.75709         0.39778
C         22.89072        48.55145        -0.74667
C         21.66459        47.91594        -0.33206
C         27.10902        23.78733        -4.06542
C         26.85982        25.10083        -3.64468
C         25.94331        25.96710        -4.44308
C         26.32824        27.83293        -2.71423
C         25.67370        27.39317        -3.97439
C         25.98520        29.04223        -2.18285
C         24.86711        29.89210        -2.72148
C         25.91942        31.96465        -1.79369
C         25.38080        31.31474        -2.85334
C         25.68673        33.41073        -1.51337
C         24.65730        34.26886        -2.18268
C         25.74396        36.29396        -1.11011
C         24.61393        35.64634        -1.78652
C         25.69253        37.74147        -0.86164
C         24.59794        38.50335        -1.16389
C         25.59971        40.60079        -0.05842
C         24.46036        39.99908        -0.86639
C         25.39599        41.88866         0.65852
C         24.15626        42.51519         0.61407
C         25.27330        44.66083         1.04277
C         24.06330        43.91845         0.84156
C         25.23448        46.08902         1.04271
C         23.95511        46.66172         1.06132
C         25.40490        48.83541        -0.27904
C         24.02342        48.48569         0.02572
C         25.63040        49.86609        -1.16638
C         28.77274        23.46777        -2.30997
C         28.05978        22.99765        -3.43157
C         28.46181        24.76196        -1.81071
C         27.55846        25.60627        -2.51641
C         28.12801        27.52708        -1.08118
C         27.35669        26.99196        -2.08921
C         27.89068        28.86897        -0.54226
C         26.71809        29.63674        -1.04159
C         27.97333        31.78004        -0.38585
C         26.70649        31.13967        -0.82193
C         27.95509        33.26650        -0.23932
C         26.76034        34.07556        -0.67899
C         28.08781        36.15705        -0.24541
C         26.86918        35.54896        -0.73652
C         27.95044        37.51461         0.29981
C         27.00644        38.42322        -0.46903
C         27.76258        40.31459         1.24316
C         26.84356        39.81860         0.16427
C         27.72451        41.79824         1.56339
C         26.54049        42.58772         1.15036
C         27.65458        44.75620         1.83383
C         26.49110        43.97353         1.31849
C         27.70273        46.29515         1.62067
C         26.45364        46.89522         0.96809
C         27.83337        48.93980         0.48668
C         26.51849        48.16354         0.41067
C         27.92275        50.11858        -0.45098
C         26.91374        50.48557        -1.28194
C         31.21947        20.60995        -1.70269
C         30.23906        21.46952        -2.29175
C         30.27594        22.95263        -0.29336
C         29.79997        22.62476        -1.69401
C         30.29907        24.46017        -0.01710
C         29.15467        25.25931        -0.59493
C         30.36605        27.45570         0.10639
C         29.12205        26.74144        -0.31640
C         30.40145        28.85282         0.04602
C         29.12564        29.60717        -0.00920
C         30.45640        31.75385        -0.17286
C         29.12638        31.07692        -0.12153
C         30.51632        33.24454        -0.19982
C         29.23655        33.98354         0.01458
C         30.40654        36.08529         0.65495
C         29.25596        35.46684         0.03796
C         30.38701        37.39695         1.12029
C         29.08675        38.09582         1.09661
C         30.28518        40.29274         1.65692
C         28.99771        39.53485         1.53883
C         30.28913        41.78722         1.82279
C         28.97639        42.50772         1.99604
C         30.26854        44.73388         2.10569
C         28.94343        44.01433         2.11972
C         30.29125        46.07173         1.42341
C         29.01107        46.67202         0.88644
C         30.39064        48.74763         0.27012
C         29.08829        48.05591         0.29925
C         30.46485        50.16666        -0.03988
C         29.18928        50.90011        -0.41407
C         30.27740        53.00288         0.22864
C         29.13812        52.32516        -0.07980
C         33.00878        18.77846        -0.14665
C         33.01289        20.17802        -0.05006
C         31.88081        20.95534        -0.54887
C         32.82083        22.98408         0.66445
C         31.58163        22.23835         0.09864
C         32.78740        24.43662         0.60432
C         31.53376        25.19602         0.46303
C         32.79522        27.34317         0.39201
C         31.58551        26.68804         0.32894
C         32.87363        28.79100         0.09720
C         31.64062        29.59807         0.09940
C         32.95870        31.73853         0.23837
C         31.70253        30.99154         0.08138
C         32.98683        33.17586         0.39621
C         31.80441        34.03308         0.00925
C         32.82222        35.89945         1.51820
C         31.59746        35.24165         0.91468
C         32.76866        37.35815         1.78841
C         31.57694        38.04456         1.65113
C         32.77653        40.28821         2.25519
C         31.50063        39.49509         2.04334
C         32.75335        41.78324         2.14351
C         31.55329        42.47964         2.15409
C         32.81950        44.64920         1.92144
C         31.56336        43.96576         2.44128
C         32.83963        45.99003         1.53500
C         31.61465        46.61879         0.98685
C         32.87807        48.84844         0.87118
C         31.65925        48.06622         0.53166
C         32.80133        50.26835         0.84979
C         31.63143        50.93712         0.42331
C         32.75508        53.13735         0.50783
C         31.55260        52.35533         0.39166
C         32.74885        54.52193         0.17242
C         35.30549        18.68750         0.63741
C         34.12001        18.04125         0.24981
C         35.34491        20.09813         0.68511
C         34.16932        20.85237         0.42766
C         35.30665        22.98270         0.93899
C         34.14674        22.29388         0.64806
C         35.28360        24.42534         1.25889
C         33.99704        25.16563         0.96153
C         35.37046        27.29245         0.74190
C         34.06720        26.59175         0.54328
C         35.32646        28.78194         0.88969
C         34.18148        29.53112         0.26506
C         35.45024        31.68650         0.34487
C         34.15074        31.00324         0.38836
C         35.46209        33.23044         0.60003
C         34.15672        33.88968         0.83130
C         35.25253        35.73454         2.22232
C         34.12277        35.20161         1.34588
C         35.30274        37.29786         2.37360
C         33.94304        38.03984         2.49005
C         35.23191        40.21436         1.92109
C         34.04704        39.53428         2.15336
C         35.19198        41.68627         1.68680
C         34.00095        42.48374         2.04921
C         35.27960        44.63701         1.86248
C         34.04354        43.90567         1.95900
C         35.29017        46.03022         1.73189
C         34.06572        46.73387         1.46985
C         35.26246        48.93022         1.65200
C         34.04342        48.15043         1.27951
C         35.19374        50.42977         1.71966
C         33.86066        51.14598         1.50740
C         35.18815        53.22710         0.80007
C         33.97698        52.51073         0.86161
C         35.16389        54.62239         0.44443
C         33.90991        55.24801         0.17635
C         37.81127        15.82214         0.73353
C         36.64029        16.49569         0.60496
C         37.80768        18.63416         1.36496
C         36.50485        17.89597         1.03172
C         37.86638        20.11182         1.23707
C         36.63955        20.80755         0.80178
C         37.84873        23.03034         1.33311
C         36.63009        22.32560         0.85271
C         37.79739        24.41114         1.51306
C         36.57669        25.17304         1.28766
C         37.88988        27.26855         1.06240
C         36.57453        26.54767         1.21595
C         37.87515        28.77670         1.29179
C         36.60004        29.52147         1.16231
C         37.91695        31.36751         0.34678
C         36.66660        30.89157         0.61929
C         37.91841        33.49939         0.59739
C         36.70157        33.89247         1.07235
C         37.89237        35.96761         1.95905
C         36.63266        35.11503         1.92804
C         37.85055        37.40823         1.93865
C         36.59147        38.10881         2.17880
C         37.72426        40.26950         1.69947
C         36.51492        39.56124         1.89518
C         37.76713        41.67988         1.58120
C         36.49530        42.42311         1.50844
C         37.87550        44.56158         1.83004
C         36.54320        43.86064         1.91827
C         37.87700        46.06174         1.88413
C         36.56270        46.79240         1.83623
C         37.77538        48.95003         1.52318
C         36.58525        48.25486         1.56006
C         37.78260        50.43806         1.62457
C         36.48613        51.21617         1.63503
C         37.64588        53.27380         0.78470
C         36.46621        52.60154         1.07156
C         37.62400        54.64777         0.29869
C         36.36792        55.34547         0.29058
C         37.46484        57.41104        -0.42774
C         36.38032        56.77358         0.06317
C         40.30848        14.38223         1.55647
C         40.27981        15.72697         1.20529
C         39.04582        16.48926         1.08547
C         40.31040        18.58881         1.52903
C         39.05708        17.86855         1.25343
C         40.31055        20.09744         1.68533
C         39.04057        20.82200         1.41771
C         40.33047        22.91714         1.63204
C         39.08189        22.27435         1.44088
C         40.32458        24.37132         1.94242
C         39.01794        25.13373         1.93074
C         40.30515        27.31357         1.46155
C         39.00362        26.66404         1.91567
C         40.33941        28.69270         1.45288
C         39.06685        29.45643         1.41918
C         40.02731        31.77105         1.57250
C         39.07596        30.89332         1.08274
C         40.36600        33.17147         1.32857
C         39.23073        34.05939         0.97207
C         40.44983        36.05397         1.98278
C         39.20195        35.42501         1.49332
C         40.42054        37.41227         2.00806
C         39.11990        38.10336         1.52685
C         40.31644        40.34314         1.68058
C         39.02367        39.57165         1.87495
C         40.19525        41.69429         1.15679
C         38.98157        42.38534         1.31640
C         40.10522        44.50493         0.70891
C         39.00729        43.83618         1.19997
C         40.22774        45.97696         0.82777
C         39.11851        46.78178         1.44643
C         40.18742        48.90595         0.84944
C         39.04362        48.25834         1.25500
C         40.29859        50.38447         0.94819
C         39.06631        51.16559         1.32599
C         40.17739        53.25717         0.33893
C         38.97333        52.63335         0.99243
C         40.00447        54.54433        -0.40510
C         38.75651        55.29369        -0.20600
C         39.97547        57.43998        -0.85944
C         38.66699        56.64350        -0.89962
C         39.98177        58.84251        -0.89834
C         42.75702        14.36226         1.56838
C         41.53360        13.70655         1.72025
C         42.81519        15.71878         1.21020
C         41.55443        16.41645         0.98403
C         42.85410        18.64746         1.38799
C         41.58674        17.95699         1.11641
C         42.84352        20.05012         1.57966
C         41.60653        20.80413         1.57193
C         42.87262        22.91457         2.00380
C         41.57623        22.20451         1.61670
C         42.85909        24.40236         1.60181
C         41.58322        25.16332         1.69308
C         42.70343        27.20596         0.59011
C         41.40184        26.44327         0.88719
C         42.78527        28.70641         0.78076
C         41.61849        29.37393         1.36237
C         42.92482        31.46934         1.60315
C         41.81562        30.64420         1.88189
C         42.84813        32.93801         1.86174
C         41.57306        33.72289         1.73845
C         42.97200        35.91124         1.85192
C         41.67406        35.17744         2.25802
C         42.96731        37.40721         1.66819
C         41.70202        38.17647         1.95709
C         42.68051        40.13285         0.62031
C         41.63624        39.61652         1.56428
C         42.54028        41.54260         0.10779
C         41.25845        42.27218         0.35100
C         42.53907        44.44991        -0.12658
C         41.24206        43.78000         0.10722
C         42.37513        45.83643        -0.70674
C         41.22419        46.67161        -0.05757
C         42.59744        48.82404        -0.02618
C         41.26231        48.16264         0.11468
C         42.68857        50.32285         0.10215
C         41.42952        51.09245         0.28754
C         42.59718        53.16475        -0.37945
C         41.36593        52.42392         0.01028
C         42.56053        54.62898        -0.65245
C         41.23397        55.28669        -0.83790
C         42.44153        57.46525        -1.04941
C         41.21181        56.76320        -0.93705
C         42.39982        58.87133        -1.07376
C         41.18412        59.54549        -0.99058
C         45.26668        15.77766         0.97123
C         44.04604        16.46754         1.13068
C         45.32919        18.57925         1.31526
C         44.06874        17.90039         1.26090
C         45.34531        20.02230         1.44963
C         44.11532        20.74372         1.57927
C         45.33798        22.83765         1.36069
C         44.13103        22.16139         1.58794
C         45.28257        24.24485         0.88744
C         43.98462        24.97364         0.79270
C         45.31353        27.23746         0.54376
C         43.99267        26.45391         0.48671
C         45.30746        28.70677         0.77506
C         44.08792        29.40368         0.90510
C         45.33022        31.53400         1.04770
C         44.10411        30.80596         1.18158
C         45.32848        32.94821         1.06696
C         44.13567        33.70543         1.51011
C         45.18061        35.83821         0.72698
C         44.09940        35.16440         1.25255
C         45.19516        37.28821         0.55858
C         44.06836        38.05698         0.90817
C         45.06940        40.09044        -0.07544
C         44.00010        39.44022         0.54738
C         44.86846        41.43941        -0.80271
C         43.74631        42.29964        -0.26065
C         44.98137        44.43321        -0.71889
C         43.72696        43.70840        -0.38929
C         44.98205        45.87015        -0.85737
C         43.69252        46.60526        -0.88381
C         45.04428        48.80068        -0.71102
C         43.73343        48.11125        -0.69564
C         45.03257        50.25844        -0.76965
C         43.87579        50.96800        -0.48229
C         44.96953        53.10266        -1.39552
C         43.75108        52.37099        -0.89186
C         44.94604        54.59808        -1.54224
C         43.72633        55.34763        -1.22207
C         44.97862        57.43367        -1.24662
C         43.71220        56.73214        -1.22300
C         46.47598        16.45321         0.95071
C         47.85152        18.51837         1.25823
C         46.53174        17.84483         1.14543
C         47.87406        20.01260         1.42479
C         46.57509        20.73377         1.38736
C         47.80452        22.82793         0.86839
C         46.57201        22.13710         1.25678
C         47.84257        24.30488         0.93993
C         46.51409        25.06066         1.00140
C         47.81061        27.16152         1.08685
C         46.53163        26.49362         0.84074
C         47.80874        28.67836         1.01555
C         46.53395        29.39961         0.86706
C         47.76765        31.55887         0.77204
C         46.55171        30.82930         0.86557
C         47.73438        32.95919         0.58290
C         46.48593        33.63983         0.68707
C         47.60553        35.77115        -0.17360
C         46.36433        35.05642         0.28261
C         47.56987        37.25597        -0.22995
C         46.35358        37.96084         0.03352
C         47.50036        40.04781        -0.60100
C         46.29801        39.36695        -0.23835
C         47.47116        41.49576        -0.94193
C         46.16945        42.23576        -1.00156
C         47.44563        44.41455        -1.02208
C         46.18336        43.72604        -0.88380
C         47.45047        45.86780        -1.03909
C         46.18668        46.59405        -1.00017
C         47.42396        48.79912        -1.27794
C         46.17521        48.05383        -1.00921
C         47.48192        50.27952        -1.12012
C         46.25165        50.99772        -1.08670
C         47.48354        53.13691        -1.25943
C         46.25630        52.39847        -1.25416
C         47.51678        54.57029        -1.33252
C         46.26807        55.35494        -1.54984
C         46.17786        56.78925        -1.25575
C         50.18558        18.59158         0.38019
C         49.07279        17.87938         0.72278
C         50.28122        20.01649         0.47527
C         49.18503        20.77961         1.19352
C         50.11032        22.83003        -0.02879
C         48.96658        22.15230         0.61108
C         50.10744        24.36649        -0.11934
C         49.00394        25.08016         0.51278
C         50.24281        27.20467         0.34357
C         49.05631        26.45842         0.68268
C         50.25445        28.65591         0.45552
C         49.06614        29.35604         0.68446
C         50.33711        31.56544         0.66567
C         49.04579        30.81510         0.85062
C         50.26064        33.05582         0.48957
C         48.95083        33.72659         0.34204
C         50.10662        35.78069        -0.42268
C         48.90968        35.06817        -0.02366
C         49.94798        37.16043        -1.05522
C         48.73473        37.93941        -0.57172
C         50.01026        40.13362        -0.58849
C         48.71281        39.36030        -0.66186
C         49.92284        41.56203        -1.06926
C         48.74580        42.25734        -0.97591
C         49.93405        44.41431        -1.13931
C         48.67981        43.70681        -1.10904
C         49.93507        45.85855        -1.07169
C         48.67902        46.55464        -1.06303
C         49.94166        48.78745        -0.91974
C         48.70442        48.02449        -1.25333
C         49.97004        50.26488        -1.11577
C         48.69730        50.97705        -1.14991
C         49.94361        53.13335        -1.11841
C         48.71326        52.41529        -1.15994
C         49.94071        54.52097        -1.15016
C         48.73564        55.23362        -1.25657
C         52.67723        20.06234        -0.20890
C         51.43441        20.72574         0.06982
C         52.53565        22.88419        -0.55525
C         51.40800        22.15467        -0.12531
C         52.49480        24.32595        -0.67885
C         51.37498        25.07471        -0.31004
C         52.59232        27.24362        -0.40256
C         51.39349        26.51039        -0.13253
C         52.64713        28.61988        -0.16563
C         51.49200        29.38668         0.20572
C         52.63972        31.55404        -0.29344
C         51.51514        30.81236         0.19575
C         52.64672        32.94852        -0.48750
C         51.48030        33.76005        -0.05656
C         52.44849        35.75796        -1.32666
C         51.30471        35.11739        -0.57495
C         52.50109        37.23482        -0.99155
C         51.21878        37.98591        -1.00835
C         52.43879        40.08356        -1.43896
C         51.20882        39.34381        -1.05607
C         52.45353        41.54764        -1.30122
C         51.15620        42.26460        -1.57434
C         52.41618        44.39544        -1.11031
C         51.16212        43.72487        -1.21594
C         52.41728        45.85019        -1.00977
C         51.16317        46.54425        -1.07006
C         52.47860        48.74385        -1.20987
C         51.21166        48.01152        -0.90168
C         52.47264        50.22911        -1.17389
C         51.16204        50.93013        -1.08784
C         52.23656        52.84056        -0.06062
C         51.27663        52.42853        -1.15877
C         53.79423        20.76000        -0.57128
C         54.95775        22.85739        -1.18239
C         53.79065        22.18417        -0.77198
C         54.90325        24.28762        -1.56915
C         53.65313        25.05173        -1.24104
C         55.06673        27.22424        -1.15944
C         53.73152        26.55763        -1.07474
C         55.12388        28.58769        -0.85660
C         53.94020        29.30109        -0.32778
C         55.06008        31.44893        -1.10034
C         53.90559        30.80982        -0.42805
C         55.04295        32.93361        -1.28151
C         53.80001        33.67307        -0.95003
C         55.03290        35.77833        -1.32020
C         53.78453        35.05247        -1.15703
C         55.05461        37.18686        -1.34995
C         53.79695        37.94313        -1.15458
C         55.05864        40.14718        -1.69108
C         53.74632        39.37105        -1.58247
C         54.93999        41.54712        -1.11284
C         53.65415        42.23085        -1.14295
C         54.90439        44.36644        -0.88027
C         53.62825        43.67399        -1.07054
C         54.87647        45.84890        -0.64695
C         53.59191        46.54678        -0.74376
C         54.74665        48.74354        -0.08554
C         53.79302        48.01501        -1.01552
C         54.81278        50.10661        -0.11657
C         53.75675        50.99100        -0.78680
C         53.36465        52.14457         0.13089
C         57.38726        22.82204        -1.60639
C         56.22487        22.19009        -1.28317
C         57.47370        24.26044        -1.88274
C         56.19461        25.05580        -1.81950
C         57.52702        27.16291        -1.45584
C         56.25839        26.50923        -1.51254
C         57.59031        28.60552        -1.22952
C         56.35401        29.32817        -0.97380
C         57.55793        31.51013        -0.98615
C         56.33614        30.72264        -0.99035
C         57.53639        32.96665        -1.24299
C         56.33005        33.65929        -1.30058
C         57.52223        35.80143        -1.21333
C         56.29666        35.08615        -1.30575
C         57.51017        37.22995        -1.14808
C         56.27110        37.92466        -1.26082
C         57.44070        40.05056        -0.93432
C         56.26352        39.36111        -1.20239
C         57.42055        41.52981        -0.92906
C         56.12222        42.22709        -0.83006
C         57.25295        44.30003        -0.02691
C         56.11838        43.61812        -0.50886
C         57.09297        45.64395         0.61061
C         55.85651        46.44446         0.31748
C         56.95943        48.63335         1.22348
C         55.76270        47.92463         0.64128
C         56.99062        50.10021         1.03363
C         55.97196        50.77682         0.45576
C         60.02757        24.28674        -1.34585
C         58.79952        24.99596        -1.72800
C         60.02374        27.13431        -1.45550
C         58.76213        26.46078        -1.54302
C         60.06917        28.61477        -1.77972
C         58.77919        29.29815        -1.37898
C         60.07183        31.49209        -1.69042
C         58.85674        30.74607        -1.15283
C         60.03305        32.97246        -1.33820
C         58.79116        33.66830        -1.25281
C         59.99773        35.81265        -1.04432
C         58.77028        35.09415        -1.17144
C         59.96796        37.25127        -0.84449
C         58.72660        37.95056        -0.92148
C         59.87828        40.07344        -0.37733
C         58.68698        39.36685        -0.74272
C         59.83955        41.48097        -0.04637
C         58.66002        42.27333        -0.42647
C         59.64659        44.27883         0.65937
C         58.50002        43.63811         0.11122
C         59.62558        45.71777         0.92578
C         58.30823        46.35600         1.17196
C         59.55901        48.54972         1.41868
C         58.26272        47.84430         1.44862
C         61.17107        24.99010        -1.11411
C         61.19032        26.40915        -1.26353
C         61.25432        29.37552        -1.21490
C         61.27483        30.71497        -1.18938
C         61.21703        33.71006        -1.28745
C         61.20487        35.09452        -1.10154
C         61.13630        37.98429        -0.54661
C         61.08812        39.34682        -0.29564
C         60.87695        42.14560         0.61128
C         60.81063        43.51979         0.88720
C         60.76091        46.48389         0.89361
C         60.71830        47.90136         1.14225
O         42.19860        40.35886        -0.73423
O         39.91705        53.44071         1.76485
O         47.27122        24.71012         2.22596
O         50.55489        48.42021         0.36440
O         42.06473        39.23841         2.90431
O         30.47380        24.72423         1.39552
O         40.80105        42.84029        -0.92305
O         43.45003        36.78781         2.92642
O         58.44004        31.17763         0.16875
O         43.76045        33.39580         2.89979
O         31.88008        35.06247         2.31714
O         46.80655        41.77339        -2.24750
O         44.69881        26.77939        -0.73178
O         40.31480        19.19863         2.85773
O         47.88890        27.96092         2.31721
O         36.07486        37.68998         3.53388
O         28.05397        44.42707         3.20332
O         58.33885        42.15636        -1.86631
O         52.49214        49.49734        -2.46701
O         35.68620        42.10300         0.34020
O         40.78834        31.22405         2.62442
O         36.90496        18.14258         2.41957
O         48.01205        19.13867         2.60145
O         44.01002        52.50600        -2.33554
O         26.79053        40.81239        -0.91205
O         54.81674        32.01326        -2.43019
O         40.07787        50.86955         2.32392
O         45.58050        54.99888        -2.79752
O         30.11413        50.51013        -1.47296
O         52.93082        39.58801        -2.77595
O         43.49706        47.52988        -2.01702
O         31.94197        39.81769         3.38098
O         39.73923        40.09113         3.00932
O         25.53625        33.59448        -0.05052
O         48.10825        48.40684        -2.53538
O         28.36861        25.79081         0.51727
O         30.23463        45.97349         2.88701
O         35.11789        49.63859         2.94689
O         57.43083        45.57434         2.03273
O         28.12168        29.02094         0.87666
O         31.80686        46.90998        -0.41864
O         55.34060        24.61149        -2.92667
O         30.44492        41.14933         0.47512
O         28.92258        46.84493        -0.54134
O         28.07550        41.95582         2.98206
O         25.93952        30.25239         0.05040
O         27.92217        39.62399         2.51465
O         36.86707        21.62847        -0.41634
O         38.04601        32.53816        -0.41422
O         42.56065        25.27052         2.76191
O         42.91431        54.13752         0.69572
O         34.41114        24.85346         2.35848
O         28.41163        33.54146         1.14577
O         37.29018        46.55638         3.10961
O         42.51404        28.09391        -0.54987
O         23.05572        40.43363         1.21709
O         44.48967        24.24163        -0.35893
O         55.15305        46.91403         1.50794
O         41.53222        17.32180        -0.18525
O         40.66552        47.55613        -1.08449
O         24.96695        32.04662        -3.96397
O         37.44439        35.14729         3.14168
O         31.82489        22.29295         1.51780
O         37.40108        43.99493         3.09285
O         43.00566        49.42453         1.23240
O         27.95970        37.38496         1.74179
O         51.20998        33.70626         1.39627
O         54.29498        30.16063         0.82024
O         53.27785        25.95219        -2.33243
O         23.85402        48.02946         1.35226
O         58.27730        24.57482        -3.06416
O         55.32204        45.34962        -1.93836
O         37.24508        51.02479         2.86182
O         35.54229        32.66024        -0.73567
O         34.98975        26.81142        -0.60001
O         35.61054        29.26111         2.23666
O         46.68548        35.17723        -1.15566
O         30.55601        32.52394        -1.47215
O         49.71562        23.52929        -1.25962
O         40.42939        54.53195        -1.82896
O         53.27038        37.64072         0.20141
O         39.61576        24.65764         3.19149
O         40.30986        46.40897         2.22997
O         26.65996        27.11227        -5.02985
O         49.88689        31.19796         2.01038
O         57.38085        48.21122         2.55141
O         27.61755        38.55949        -1.73094
O         39.43516        35.21658         0.03375
O         49.78008        36.90332        -2.44949
O         33.76569        29.07639        -1.05659
O         60.19626        28.69250        -3.24414
H         59.49409        28.13014        -3.63717
O         32.14033        34.61362        -1.28368
H         32.01287        33.90441        -1.95520
O         24.46075        40.71548        -2.13700
H         25.41082        40.77992        -2.40016
O         41.90119        45.53603        -2.04206
H         42.01910        46.35396        -2.57834
O         31.69200        44.04807         3.89224
H         31.43359        44.95905         4.15912
O         38.74306        27.09661         3.26469
H         39.20178        26.47100         3.87029
O         55.32526        40.36108        -3.10568
H         54.45193        40.30529        -3.56618
O         54.35719        51.54349        -1.97333
H         53.66859        52.11570        -2.39617
O         49.74062        21.06247         2.51934
H         49.44882        20.31994         3.10064
O         33.32140        51.44057         2.83121
H         33.67713        50.74989         3.44011
O         23.85051        29.96423        -1.67380
H         24.31398        30.11909        -0.81109
O         41.70591        34.99633         3.68912
H         42.38707        35.60996         4.05229
O         42.90640        22.84894         3.45174
H         42.53318        23.69386         3.79888
O         38.43336        56.35124        -2.31997
H         39.13589        55.71033        -2.59206
O         51.91076        52.76893        -2.43619
H         51.35796        52.39217        -3.15379
O         23.57271        38.49212        -3.33092
H         23.78942        39.45391        -3.22585
O         38.26062        27.09192        -0.33582
H         37.46283        27.22681        -0.89178
O         29.25884        22.42101         0.59046
H         29.48811        22.73203         1.49558
O         33.59008        37.95214         3.88872
H         34.40704        38.11005         4.41334
O         54.51408        48.01095        -2.28168
H         54.09920        48.71072        -2.84515
O         60.04356        31.44484        -3.13674
H         60.18380        30.50305        -3.41417
O         27.76287        46.92685         2.91926
H         28.08946        46.24020         3.55704
O         34.88382        35.26256         3.53670
H         35.64653        35.45914         4.12847
O         39.21130        38.10808         0.06389
H         39.24832        37.17780        -0.25895
O         40.90408        25.97336        -0.39275
H         40.92384        26.73986        -1.01016
O         52.13895        35.67448        -2.74210
H         51.23039        36.10797        -2.86192
O         51.02802        42.22991        -3.05045
H         51.82076        42.66527        -3.43080
O         27.96300        49.47949         1.83080
H         27.80339        48.73975         2.47105
O         50.24265        40.29947         0.86911
H         50.46076        39.41783         1.24208
O         44.40184        41.04295        -2.11872
H         45.19889        40.98534        -2.69919
H         24.96214        24.28972        -5.53495
H         23.23399        25.67942        -6.57124
H         22.88214        28.01948        -5.93263
H         22.36211        29.72087        -5.12180
H         21.62338        31.71154        -3.73745
H         21.69549        34.13730        -3.93748
H         21.62341        36.51495        -3.24908
H         21.21136        37.86561        -1.78090
H         20.94096        39.85790        -0.43775
H         20.72839        41.81428         0.33502
H         20.63373        44.24911         0.48430
H         20.58594        46.30289         0.51952
H         22.91193        49.05446        -1.72435
H         20.73074        48.31349        -0.76066
H         26.58199        23.37629        -4.93612
H         24.77973        50.31520        -1.69808
H         28.23302        21.98422        -3.81456
H         27.03763        51.34090        -1.96089
H         31.48742        19.68390        -2.23016
H         29.85855        21.17616        -3.27920
H         30.20372        54.07704         0.44687
H         28.15946        52.82393        -0.03931
H         32.10604        18.26095        -0.49811
H         31.81016        55.01737        -0.10604
H         34.06963        16.94506         0.22181
H         33.87826        56.31035        -0.09664
H         37.85919        14.76244         0.44590
H         35.77152        15.98172         0.17092
H         37.41338        58.49536        -0.59320
H         35.48700        57.35950         0.32164
H         39.36910        13.84057         1.73324
H         39.04445        59.41167        -0.86097
H         43.68415        13.80480         1.75967
H         41.52458        12.64730         2.01023
H         43.32253        59.45734        -1.17129
H         41.16907        60.64364        -1.01649
H         45.26279        14.68781         0.83773
H         44.97889        58.52059        -1.08941
H         47.39993        15.87624         0.81724
H         47.09583        57.36322        -1.06709
H         51.03105        18.03750        -0.05283
H         49.07736        16.79294         0.56152
H         50.89440        55.06596        -1.13281
H         48.77382        56.32924        -1.31588
H         52.75136        18.97348        -0.08702
H         51.97884        53.69092         0.58913
H         54.71801        20.19352        -0.74343
H         54.05679        52.43998         0.93381
H         58.30087        22.22362        -1.72426
H         56.27536        21.11068        -1.09028
H         57.83982        50.65610         1.45435
H         56.03841        51.86935         0.35913
H         60.03703        23.18895        -1.33419
H         59.57601        49.62046         1.66259
H         62.10604        24.46650        -0.87176
H         62.16177        26.91816        -1.21983
H         62.12788        28.81448        -0.85273
H         62.15612        31.24285        -0.79504
H         62.18566        33.20302        -1.39580
H         62.16647        35.62122        -1.04093
H         62.10630        37.47428        -0.48048
H         62.02177        39.87016        -0.04936
H         61.78294        41.59932         0.90719
H         61.68133        44.00226         1.35220
H         61.73476        46.02292         0.67854
H         61.66512        48.45860         1.12821
