         349
 CSIRO Nanostructure Databank - Neutral Graphene Oxide Data Set
C          2.17804         2.12098        -2.95637
C          2.15504         3.53055        -2.94217
C          3.09515         1.42352        -2.19137
C          2.94797         4.23483        -2.03472
C          1.88128         6.52229        -2.50695
C          1.76966         7.85579        -2.24918
C          3.11970         5.74955        -2.11974
C          2.78094         8.61142        -1.55710
C          1.77093        10.78542        -2.11669
C          1.74564        12.14541        -2.06775
C          2.78102        10.01509        -1.43526
C          2.73893        12.88539        -1.34464
C          1.59705        15.04830        -1.79659
C          1.61201        16.42469        -1.80492
C          2.67240        14.28201        -1.24972
C          2.77396        17.15707        -1.38646
C          2.87558        18.56082        -1.61417
C          3.99586         2.10291        -1.31502
C          3.78129         3.51777        -1.14007
C          5.16288         1.39736        -0.89861
C          4.50467         4.24684        -0.12731
C          3.65997         6.37288        -0.82144
C          3.92595         7.84327        -1.02140
C          4.77900         5.59790        -0.16184
C          4.92858         8.51533        -0.15523
C          3.79091        10.72141        -0.69691
C          3.80623        12.13280        -0.69149
C          4.74521         9.97300         0.22547
C          4.91519        12.85064        -0.14824
C          3.66474        15.02278        -0.38285
C          3.86195        16.45860        -0.81324
C          4.95390        14.26599        -0.17931
C          5.05829        17.13681        -0.52442
C          4.03341        19.23836        -1.31288
C          5.16562        18.54288        -0.78596
C          6.34081         1.97115        -0.33293
C          6.25530         3.19882         0.39933
C          7.62930         1.41773        -0.45671
C          7.32143         4.06889         0.62222
C          5.81640         6.22235         0.70440
C          5.87170         7.72985         0.71949
C          7.12836         5.47221         1.09462
C          7.16597         8.45601         1.01604
C          6.10874        10.62268         0.36212
C          6.04617        12.12052         0.54880
C          7.24788         9.91727         0.66900
C          7.37903        12.74778         0.26304
C          6.13601        14.98267         0.07116
C          6.20720        16.41833        -0.02300
C          7.41819        14.25704         0.12700
C          7.40683        17.09488         0.22496
C          6.38342        19.19952        -0.54185
C          7.51268        18.49927        -0.05295
C          8.73991         2.08470         0.12270
C          8.60746         3.45623         0.57835
C          9.98022         1.41124         0.26242
C          9.65449         4.06794         1.32632
C          8.37803         6.28092         1.32091
C          8.39691         7.65301         1.24817
C          9.61130         5.50587         1.73167
C          9.70041         8.39188         1.18729
C          8.54810        10.58892         0.83686
C          8.60378        12.04772         0.66730
C          9.69476         9.88102         1.11663
C          9.78938        12.75137         0.67114
C          8.64679        14.93168         0.51601
C          8.55477        16.38440         0.90224
C          9.83005        14.20893         0.69072
C          9.88516        17.06877         0.75581
C          8.75131        19.16417         0.09779
C          9.93479        18.46948         0.44985
C         10.98154         1.95608         1.08861
C         10.65632         3.19071         1.73835
C         12.27113         1.36642         1.25330
C         12.42547         4.21086         2.29704
C         10.94334         6.25281         2.03457
C         10.98314         7.69368         1.56299
C         12.27144         5.57262         2.05858
C         12.24765         8.50248         1.67944
C         10.98932        10.65216         1.39706
C         11.05280        11.93507         0.54280
C         12.26820         9.82258         1.32825
C         12.30825        12.76876         0.80334
C         11.03946        14.92434         1.04684
C         11.05866        16.33132         1.02917
C         12.25617        14.13944         1.48376
C         12.30376        17.10212         1.42777
C         11.18416        19.12265         0.38261
C         12.37828        18.48672         0.80151
C         13.48108         2.04861         1.56434
C         13.56481         3.45001         1.88851
C         14.70226         1.35812         1.28462
C         14.77901         4.17372         1.64833
C         13.56994         6.30918         2.32833
C         13.52099         7.81263         2.05205
C         14.79420         5.58436         1.77348
C         14.82905         8.49720         1.77752
C         13.54802        10.47918         0.76856
C         13.58124        12.01296         0.87022
C         14.83692         9.87749         1.26284
C         14.77079        12.67527         1.55409
C         13.58059        14.88102         1.31121
C         13.59899        16.33564         1.24886
C         14.75461        14.17692         1.36880
C         14.77327        17.03953         1.21871
C         13.57232        19.17107         0.80786
C         14.80045        18.53915         1.38187
C         15.93390         2.01830         1.18270
C         15.96937         3.45059         1.32786
C         17.13537         1.31899         0.81756
C         17.19169         4.15430         1.18078
C         16.01856         6.28816         1.58239
C         16.05206         7.69852         1.63592
C         17.21868         5.53855         1.28196
C         17.24665         8.42919         1.10877
C         16.04737        10.57494         1.26265
C         16.04565        12.05367         0.96711
C         17.25735         9.88860         1.46022
C         17.31719        12.77347         1.33809
C         16.05637        14.87027         1.42269
C         16.07797        16.36303         1.33489
C         17.33175        14.14021         1.23428
C         17.29425        17.00936         0.78830
C         16.05083        19.16094         0.83873
C         17.21266        18.44730         0.50278
C         18.35624         1.96426         0.63470
C         18.50424         3.41171         1.06061
C         19.53006         1.28592         0.21995
C         19.47652         4.17299         0.17502
C         18.53133         6.22957         1.21623
C         18.55403         7.71600         1.33857
C         19.65162         5.60881         0.48350
C         19.74752         8.43197         0.85594
C         18.53912        10.57183         1.65813
C         18.55093        12.08310         1.83004
C         19.81541         9.84326         1.26460
C         19.84209        12.76348         1.37412
C         18.56502        14.87893         1.01724
C         18.44222        16.27307         0.55252
C         19.78924        14.17055         1.07574
C         19.39323        16.88975        -0.44597
C         18.32390        19.12329        -0.02428
C         19.54253        18.42952        -0.54831
C         20.70733         1.96722        -0.17212
C         20.60528         3.42013        -0.46748
C         21.94230         1.32539        -0.30499
C         21.81219         4.19668        -0.92938
C         20.72576         6.35026         0.03163
C         20.79842         7.78794         0.27166
C         21.83683         5.70577        -0.72631
C         21.91548         8.61534        -0.34250
C         21.03974        10.60779         0.96749
C         21.02582        11.99580         1.44786
C         22.04434        10.02367         0.21824
C         22.04354        12.85097        -0.65240
C         21.04062        14.83887         0.67902
C         21.22351        16.24611         1.06171
C         22.00429        14.23945        -0.10356
C         22.07651        17.05652         0.34104
C         20.77697        19.11818         0.03667
C         22.00119        18.51404         0.27359
C         23.14602         2.00853        -0.64573
C         23.10300         3.42906        -1.08545
C         24.37504         1.36217        -0.56870
C         24.41766         4.18570        -1.14084
C         23.15111         6.45527        -0.80267
C         23.22959         7.86029        -0.30793
C         24.42743         5.68624        -1.01401
C         24.42974         8.50827        -0.17509
C         23.30726        10.70144        -0.09628
C         23.34080        12.12742        -0.35837
C         24.48981         9.95981        -0.08157
C         24.53358        12.80901        -0.43584
C         23.28916        14.97154        -0.17561
C         23.17451        16.42865        -0.40400
C         24.57335        14.27765        -0.38142
C         24.46027        17.17360        -0.57796
C         23.26023        19.21237         0.24950
C         24.47482        18.57050        -0.07007
C         25.63418         2.04855        -0.65617
C         25.66750         3.46700        -0.81070
C         26.84817         1.35917        -0.46367
C         26.88004         4.16996        -0.72327
C         25.70213         6.32824        -0.63569
C         25.73544         7.74008        -0.08536
C         26.88218         5.62689        -0.67792
C         26.87928         8.52696        -0.75837
C         25.79785        10.66787         0.00394
C         25.83285        12.16255        -0.21621
C         27.10675         9.89683        -0.10067
C         27.06090        12.87820        -0.67481
C         25.79984        15.03431        -0.73188
C         25.73147        16.40328        -0.72611
C         27.05721        14.29151        -0.90152
C         26.94904        17.20818        -0.93474
C         25.73118        19.17553         0.10016
C         26.95271        18.53498        -0.24718
C         28.07778         2.04437        -0.41723
C         28.10237         3.46679        -0.53480
C         29.31588         1.34016        -0.22425
C         29.35289         4.17316        -0.47742
C         28.15857         6.34608        -0.67114
C         28.15878         7.71979        -0.76909
C         29.40221         5.59195        -0.63528
C         29.37901         8.45555        -1.11221
C         28.23934        10.67543        -0.76004
C         28.24284        12.10658        -0.87683
C         29.40104         9.93279        -1.03970
C         29.43085        12.77492        -1.33250
C         28.24964        14.98304        -1.26773
C         28.23959        16.49618        -1.28023
C         29.43046        14.20070        -1.55237
C         29.47451        17.31337        -1.02203
C         28.16407        19.09907         0.11809
C         29.41660        18.53252        -0.28494
C         30.50527         2.01210        -0.16423
C         30.55787         3.44057        -0.29956
C         31.79107         4.13585        -0.26758
C         30.65274         6.25038        -0.68056
C         30.70695         7.68383        -1.06249
C         31.83579         5.50568        -0.46693
C         31.90816         8.51268        -0.90480
C         30.62916        10.58627        -1.29885
C         30.61954        12.00290        -1.54540
C         31.86199         9.85418        -1.14941
C         31.77283        12.60997        -2.09019
C         30.61423        14.72911        -2.15910
C         30.68362        17.03327        -1.66784
C         31.74281        13.94873        -2.43863
C         31.84730        17.79300        -1.48786
C         30.60240        19.27281        -0.05193
C         31.80898        18.89648        -0.62878
O         19.81250        16.20411        -1.37240
O         23.52452        16.95210        -1.70902
O         30.72914        16.02613        -2.63468
O         13.19817        12.72366        -0.34820
O         25.89394        11.58487         1.15645
O         24.12000        14.68919         1.02337
O          7.52376        13.34767        -1.04816
O         10.01269         5.88417         3.09254
O         27.42370        17.14129        -2.32614
O         16.22219        15.71326         2.65179
O         18.79641         6.90757         2.51359
O         14.19265         8.52490         3.15227
O          6.02957         5.66061         2.03100
O         19.40178         3.78819        -1.22283
O         21.14960        12.34200        -1.30749
O         10.55974         7.77312         0.14200
O         21.48020         5.10655        -2.00918
O          6.09855         8.26614         2.04717
O         23.77821         3.67564        -2.35286
O         23.77465         6.37367        -2.13951
O         19.39529         9.94631         2.68777
O         30.01914         7.94546        -2.33269
O          5.00763         3.49034         0.94094
O         11.37162         3.49646         2.88356
O          5.22985         8.25810        -1.56519
O         14.71424        12.39253         2.96202
H         13.90852        12.83391         3.32123
O         26.00324         7.55730         1.33055
H         26.58097         8.30186         1.63885
O         12.13707        13.88110         2.91830
H         12.05341        14.75293         3.36424
O         17.13425         8.40635        -0.37550
H         16.27203         8.81243        -0.61691
O          4.13473         5.95809        -3.13620
H          3.76315         5.69279        -4.00264
O         18.54828        12.32588         3.27967
H         18.99232        11.55133         3.69753
O         10.91936        11.10708         2.77568
H         10.99039        10.33270         3.37225
O         15.91769        12.19737        -0.47501
H         16.71948        11.83124        -0.90299
O         14.75227        18.75134         2.85740
H         15.46614        18.20010         3.24794
O         12.19353        17.30721         2.87635
H         12.96170        17.87862         3.13223
O         26.50678         8.81349        -2.12178
H         26.36967         7.96537        -2.59519
O         13.71242         6.15489         3.78269
H         14.17089         6.96821         4.10819
O          5.79692        12.29223         1.97841
H          4.97304        11.78774         2.18163
O         27.58405         9.67041         1.25943
H         27.32945        10.47936         1.76785
O          4.12765        10.02376         1.55128
H          4.70685         9.48235         2.14681
O          2.55472         6.30017         0.12931
H          2.89627         6.48436         1.02974
O         22.20153        12.47812         1.89409
H         22.14027        13.41780         2.16324
O         20.48000        16.77541         2.07870
H         19.91557        16.08345         2.48333
O          3.04091        15.09531         0.95268
H          2.20262        15.59492         0.85310
O         13.49207        10.12059        -0.64012
H         12.73513        10.63340        -1.02740
O         19.63071        18.69941        -1.97746
H         19.97654        17.87067        -2.38990
O         21.57955         8.77587        -1.75208
H         21.69360         7.91031        -2.20188
O         19.11481         3.39713         2.38507
H         18.45504         3.05209         3.02242
O          8.23210        16.41985         2.35137
H          9.04289        16.15982         2.83946
O         11.08697        11.48490        -0.83558
H         11.19705        12.27200        -1.41067
H          1.50684         1.57792        -3.63628
H          1.49298         4.06473        -3.63831
H          3.17794         0.33189        -2.29511
H          1.06855         6.01022        -3.04282
H          0.85814         8.37073        -2.58535
H          0.99894        10.26391        -2.69682
H          0.95003        12.67932        -2.60330
H          0.73580        14.53636        -2.24785
H          0.76691        16.97864        -2.23815
H          2.01567        19.09286        -2.04610
H          5.26331         0.37384        -1.29592
H          4.11072        20.31962        -1.49666
H          7.77016         0.43308        -0.92397
H          6.46868        20.27706        -0.74801
H         10.12333         0.42948        -0.21037
H          8.81630        20.23392        -0.14902
H         12.39054         0.34886         0.84560
H         11.22980        20.16435         0.03043
H         14.65673         0.27963         1.06971
H         13.62165        20.20178         0.42513
H         17.06056         0.24251         0.59778
H         16.05579        20.25320         0.70248
H         19.52991         0.18465         0.20246
H         18.27047        20.21579        -0.14878
H         22.01279         0.25708        -0.04983
H         20.75281        20.21680        -0.05626
H         24.39173         0.29146        -0.31384
H         23.26915        20.29890         0.42675
H         26.83462         0.26596        -0.34137
H         25.78723        20.17238         0.56356
H         29.28970         0.24513        -0.12621
H         28.17372        20.05753         0.65797
H         31.44709         1.46283        -0.01962
H         32.72320         3.57171        -0.12035
H         32.81016         6.01331        -0.48752
H         32.86256         8.04321        -0.62760
H         32.80052        10.42453        -1.09780
H         32.66865        12.01309        -2.30178
H         32.60278        14.42256        -2.92871
H         32.76171        17.52858        -2.03360
H         30.54172        20.19075         0.54924
H         32.71476        19.49408        -0.45840
