         204
 CSIRO Nanostructure Databank - Neutral Graphene Oxide Data Set
C        -11.15433         0.70850         0.51890
C        -10.00196         1.47848         0.10899
C         -8.82235         0.74646        -0.39678
C         -7.55353         1.47204        -0.58651
C         -6.39635         0.69633        -1.10336
C         -5.07780         1.47184        -1.28459
C         -3.73727         0.75912        -1.54577
C         -2.52656         1.40218        -0.86907
C         -1.31668         0.71156        -0.76935
C         -0.00201         1.44495        -0.88123
C          1.23461         0.65222        -0.52551
C          2.43401         1.36327        -0.20819
C          3.63480         0.64157        -0.06169
C          4.87418         1.32852         0.33741
C          6.16844         0.62762         0.19730
C          7.37218         1.33587         0.27449
C          8.59911         0.63333         0.38607
C          9.82818         1.36256         0.58870
C         11.03566         0.60635         0.73551
C         -9.94976         2.84320         0.19715
C         -8.71161         3.57042         0.00448
C         -7.49927         2.83221        -0.37959
C         -6.24273         3.56386        -0.49656
C         -5.04307         2.88297        -0.84157
C         -3.78998         3.54515        -0.67268
C         -2.56750         2.81356        -0.67424
C         -1.35369         3.51012        -0.19858
C         -0.04641         2.78172        -0.18711
C          1.21064         3.55205        -0.15865
C          2.43074         2.82059        -0.08855
C          3.62182         3.53641         0.12218
C          4.87067         2.82502         0.41028
C          6.13738         3.55950         0.32584
C          7.40903         2.82264         0.01794
C          8.63816         3.52880         0.53426
C          9.81449         2.77002         0.70253
C         -8.67702         4.91401         0.25403
C         -7.38591         5.64634         0.43024
C         -6.20648         4.94049        -0.18592
C         -4.98882         5.66482        -0.26475
C         -3.76795         4.96056        -0.42392
C         -2.53192         5.68511        -0.31691
C         -1.30770         4.98075        -0.21524
C         -0.08128         5.67155        -0.14656
C          1.18428         4.95197        -0.09335
C          2.41761         5.67337         0.01418
C          3.64098         4.95643         0.14433
C          4.87291         5.66557         0.31684
C          6.12659         4.94203         0.37227
C          7.37944         5.66413         0.52663
C          8.58688         4.92762         0.66699
C         -7.42417         7.11289         0.09508
C         -6.25234         7.81069        -0.05694
C         -4.98425         7.09913        -0.13778
C         -3.77744         7.81017        -0.16723
C         -2.53084         7.10748        -0.23319
C         -1.29462         7.81632        -0.20161
C         -0.08289         7.09506        -0.20573
C          1.19651         7.81141        -0.29601
C          2.44348         7.09434        -0.00054
C          3.64414         7.79851         0.21099
C          4.87093         7.07616         0.37202
C          6.11346         7.77783         0.58339
C          7.32462         7.07251         0.65341
C         -6.21918         9.26089        -0.10633
C         -5.04362         9.94417        -0.08885
C         -3.76928         9.25654        -0.08099
C         -2.57111         9.93916         0.01053
C         -1.29820         9.26626        -0.04153
C         -0.11754         9.97105         0.13234
C          1.18839         9.35223        -0.09891
C          2.44078         9.95526         0.35952
C          3.62769         9.24174         0.38646
C          4.88308         9.89501         0.68518
C          6.06256         9.20680         0.74399
C        -11.07867        -0.63306         0.75662
C         -9.85671        -1.38536         0.57862
C         -8.75077        -0.74868        -0.16848
C         -7.42725        -1.41431        -0.23293
C         -6.36292        -0.77055        -0.86271
C         -5.14863        -1.55028        -1.21165
C         -3.82969        -0.78415        -1.46109
C         -2.54599        -1.50492        -1.14196
C         -1.27853        -0.75330        -0.72555
C          0.00524        -1.47505        -0.84994
C          1.24669        -0.73645        -0.67940
C          2.47971        -1.46967        -0.55377
C          3.68129        -0.76535        -0.24781
C          4.91602        -1.48398        -0.12446
C          6.15257        -0.78487         0.09443
C          7.38111        -1.50002         0.16709
C          8.60030        -0.78821         0.35979
C          9.83133        -1.51823         0.48953
C         11.04169        -0.76690         0.68140
C         -9.69371        -2.65138         1.07912
C         -8.45812        -3.38261         0.91016
C         -7.33960        -2.75654         0.26260
C         -6.13994        -3.51082         0.07034
C         -5.11122        -2.97111        -0.76567
C         -4.10602        -3.86516        -1.17100
C         -2.30884        -2.87437        -1.57353
C         -1.19204        -3.60260        -1.20017
C          0.01993        -2.85215        -0.98204
C          1.30476        -3.56943        -1.27701
C          2.51501        -2.87236        -0.72490
C          3.71465        -3.59377        -0.55985
C          4.92932        -2.89237        -0.26687
C          6.15689        -3.62026        -0.14048
C          7.37904        -2.92341         0.08341
C          8.60941        -3.64393         0.22868
C          9.81667        -2.91883         0.43055
C         -8.35147        -4.69271         1.37292
C         -7.14582        -5.45385         1.23015
C         -6.03101        -4.84210         0.54190
C         -4.81732        -5.60622         0.35162
C         -3.76527        -5.05661        -0.48533
C         -2.47240        -5.70611        -0.60811
C         -1.23785        -5.05276        -1.04028
C         -0.00739        -5.74334        -0.95287
C          1.26839        -5.04958        -1.00834
C          2.47069        -5.72628        -0.89231
C          3.72002        -5.02734        -0.68449
C          4.92545        -5.74047        -0.47634
C          6.14558        -5.04120        -0.22164
C          7.37244        -5.76174        -0.01270
C          8.57380        -5.06040         0.19074
C         -7.05765        -6.75404         1.71416
C         -5.76668        -7.50778         1.74753
C         -4.69031        -6.86916         0.91153
C         -3.40063        -7.62000         0.82246
C         -2.37034        -7.02186        -0.09733
C         -1.19455        -7.78944        -0.25909
C          0.01278        -7.15186        -0.66508
C          1.21744        -7.88794        -0.67073
C          2.49456        -7.21893        -1.10069
C          3.72793        -7.90000        -0.57184
C          4.91583        -7.19059        -0.42051
C          6.14781        -7.89469        -0.13790
C          7.33660        -7.19208         0.01863
C         -5.91034        -8.96946         1.37714
C         -4.88507        -9.68765         0.86779
C         -3.58354        -9.10808         0.58953
C         -2.48551        -9.84913         0.25656
C         -1.20926        -9.20763        -0.01060
C         -0.02281        -9.92791        -0.10723
C          1.21355        -9.27397        -0.38268
C          2.45594        -9.98983        -0.33094
C          3.68387        -9.32245        -0.36671
C          4.92562       -10.01391        -0.12733
C          6.10469        -9.33161        -0.03463
O          1.29630         8.72263        -1.42985
O         -0.80832         2.86861         1.04608
O         -9.15045        -0.19805        -1.47008
O         -7.13685         5.60720         1.90010
H         -6.28989         6.07807         2.05744
O         -4.59439        -1.31672        -2.55972
O          2.56685        -7.38680        -2.57657
H          2.56326        -8.35209        -2.75356
O          4.77321         1.99534         1.65692
O         -2.19092        -1.33467         0.28237
O         -5.97220         1.20214        -2.41670
O         -3.31349        -3.52628        -2.28720
O          7.51560         2.90977        -1.46632
H          7.70207         3.84831        -1.68613
O          0.14903         1.78897        -2.30369
H          0.09902         0.96170        -2.82787
O          1.43747        -3.46626        -2.75363
H          2.12492        -4.11143        -3.02853
O         -3.43651         1.01495        -2.94559
H         -4.25803         0.79169        -3.44378
O         -2.78652        -7.51107         2.16420
H         -3.51911        -7.68451         2.81132
O         -5.30611        -7.50377         3.17341
H         -5.43280        -6.58960         3.50802
H         11.98912        -1.31519         0.79076
H         11.97921         1.14993         0.89340
H         10.75402         3.29014         0.94761
H          9.50770         5.47279         0.92734
H          8.25907         7.63067         0.81787
H          7.00260         9.74487         0.93706
H          4.87664        10.98540         0.83099
H          2.43372        11.01066         0.67272
H         -0.15550        11.03274         0.42053
H         -2.57745        11.03632         0.09776
H         -5.04168        11.04427        -0.07995
H         -7.17689         9.80199        -0.10458
H         -8.37984         7.65257         0.18027
H         -9.60380         5.43390         0.54203
H        -10.82937         3.40501         0.54674
H        -12.08883         1.24959         0.72898
H        -11.95514        -1.16682         1.15322
H        -10.51799        -3.13682         1.62316
H         -9.21406        -5.15950         1.87139
H         -7.92535        -7.20046         2.22265
H         -6.87794        -9.45537         1.57428
H         -5.02103       -10.75980         0.65241
H         -2.54969       -10.94648         0.18904
H         -0.02390       -11.01314         0.07389
H          2.43556       -11.07243        -0.13594
H          4.90445       -11.10724        -0.00900
H          7.04468        -9.87141         0.15274
H          8.27110        -7.74162         0.20891
H          9.50667        -5.62543         0.33762
H         10.76047        -3.47452         0.53887
