         600
 CSIRO Nanostructure Databank - Neutral Graphene Oxide Data Set
C         22.91416        27.47158        -0.05005
C         22.92193        28.84866         0.00054
C         22.94913        31.76989         0.13286
C         22.95932        33.14940         0.21600
C         22.97730        36.04982         0.54849
C         22.99051        37.42365         0.73725
C         22.96217        40.40646         1.06913
C         22.97866        41.69355         0.69464
C         22.99499        44.46384        -0.48983
C         22.98488        45.81615        -0.76498
C         25.30195        24.60946         0.01205
C         24.12260        25.31636        -0.04288
C         25.36576        27.43136         0.13206
C         24.12660        26.73648         0.01398
C         25.36848        28.86294         0.17066
C         24.13762        29.57702         0.10993
C         25.38740        31.72162         0.25651
C         24.14969        31.02067         0.16456
C         25.39760        33.15048         0.31690
C         24.16984        33.87116         0.32012
C         25.41903        36.01322         0.50205
C         24.17975        35.31514         0.45398
C         25.43019        37.42967         0.66822
C         24.20318        38.12577         0.83436
C         25.50174        40.30274         0.88768
C         24.20495        39.58240         1.09801
C         25.48950        41.73216         0.52551
C         24.18489        42.29662         0.00997
C         25.39923        44.51729        -0.09937
C         24.19572        43.80432        -0.12513
C         25.41833        45.89752        -0.44703
C         24.19451        46.55436        -0.76181
C         25.39658        48.63175        -1.13225
C         24.21132        47.94296        -1.08251
C         27.84117        23.12217         0.07204
C         27.78061        24.50956         0.21620
C         26.55752        25.26696         0.14301
C         27.82747        27.41774         0.31093
C         26.58795        26.69657         0.20693
C         27.83641        28.84481         0.32724
C         26.60765        29.57081         0.26479
C         27.85972        31.69977         0.38722
C         26.62237        30.99655         0.30012
C         27.86823        33.12733         0.39315
C         26.64409        33.85462         0.36647
C         27.89470        35.97655         0.37087
C         26.66145        35.28582         0.40739
C         27.91642        37.41819         0.41024
C         26.69276        38.13842         0.59819
C         27.93868        40.26172         0.44605
C         26.72776        39.54246         0.60958
C         27.94271        41.69395         0.41862
C         26.67733        42.40104         0.40367
C         27.93753        44.54934        -0.02801
C         26.66600        43.90725         0.45935
C         27.91661        45.92073        -0.36340
C         26.65959        46.61780        -0.53520
C         27.89832        48.70249        -1.02888
C         26.64708        47.98349        -0.88966
C         27.92664        50.07960        -1.34666
C         30.29591        23.03120        -0.03822
C         29.05102        22.40459        -0.03874
C         30.32981        24.46344         0.29337
C         29.03877        25.23695         0.44950
C         30.27889        27.40673         0.42011
C         29.06524        26.71620         0.35933
C         30.30252        28.83149         0.50722
C         29.07360        29.55094         0.43314
C         30.33792        31.66525         0.56806
C         29.09589        30.97799         0.46214
C         30.34340        33.10776         0.54638
C         29.11473        33.82478         0.43654
C         30.37404        35.93378         0.32406
C         29.13413        35.24853         0.36562
C         30.38557        37.37812        -0.09277
C         29.13023        38.12110         0.28156
C         30.39627        40.25792         0.21584
C         29.15971        39.53727         0.30517
C         30.39350        41.67245         0.17653
C         29.15503        42.39510         0.23349
C         30.38909        44.51248        -0.18913
C         29.15128        43.82934         0.02380
C         30.38155        45.91308        -0.44412
C         29.14697        46.61327        -0.56529
C         30.36824        48.72199        -1.00632
C         29.13427        48.01586        -0.86713
C         30.36359        50.11233        -1.30854
C         29.12154        50.76243        -1.48272
C         32.78875        20.28786        -0.60698
C         31.59311        20.96918        -0.50577
C         32.80186        23.07184        -0.17098
C         31.55502        22.36179        -0.25667
C         32.83771        24.49517        -0.03112
C         31.56391        25.21976        -0.06011
C         32.83768        27.36466         0.41685
C         31.55902        26.71452         0.13280
C         32.74780        28.71426         1.10311
C         31.53627        29.51945         0.67024
C         32.82223        31.62638         0.85052
C         31.56085        30.92421         0.69686
C         32.78136        33.08917         1.01101
C         31.55267        33.82905         0.67708
C         32.85117        35.96988         0.54599
C         31.58375        35.24080         0.52651
C         32.86352        37.39917         0.40738
C         31.64841        38.12115         0.25726
C         32.87668        40.25472         0.26163
C         31.64160        39.52767         0.23646
C         32.87415        41.67935         0.13349
C         31.63837        42.39025         0.06770
C         32.87495        44.50892        -0.24351
C         31.63364        43.80118        -0.10834
C         32.85977        45.92055        -0.50501
C         31.62321        46.61938        -0.60238
C         32.84340        48.72252        -0.99860
C         31.61051        48.01982        -0.85621
C         32.83810        50.16170        -1.18887
C         31.61539        50.84403        -1.37541
C         32.81321        52.96743        -1.49505
C         31.63895        52.25146        -1.57925
C         35.31029        18.83046        -0.71331
C         35.27712        20.24147        -0.54619
C         34.03373        20.95587        -0.48389
C         35.27607        23.09227        -0.24867
C         34.03646        22.37103        -0.28960
C         35.28304        24.51808        -0.11124
C         34.03738        25.22131         0.00286
C         35.30369        27.32747         0.38413
C         34.03350        26.65646         0.26985
C         35.34742        28.75934         0.74047
C         34.06679        29.48772         1.05890
C         35.30966        31.65961         0.81948
C         34.04376        30.96043         0.90084
C         35.33923        33.07021         0.85899
C         34.09351        33.84356         1.05531
C         35.29583        35.99770         0.74197
C         34.06806        35.29332         0.73677
C         35.33323        37.40018         0.59390
C         34.10167        38.11595         0.45435
C         35.34125        40.26462         0.31210
C         34.09930        39.54026         0.34553
C         35.33618        41.68025         0.21110
C         34.11716        42.39249         0.09034
C         35.34993        44.53288        -0.30038
C         34.10849        43.81670        -0.11833
C         35.32129        45.89173        -0.67609
C         34.09050        46.61971        -0.73345
C         35.28175        48.80238        -1.43005
C         34.06300        48.02163        -0.97336
C         35.30521        50.21199        -0.89166
C         34.05555        50.90584        -1.07948
C         35.24463        53.04622        -0.88311
C         34.03535        52.31787        -1.18542
C         35.35101        54.45586        -1.02235
C         37.74517        18.80808        -0.55490
C         36.49805        18.14064        -0.72786
C         37.74182        20.23888        -0.43548
C         36.51266        20.94935        -0.43722
C         37.73983        23.10198        -0.35047
C         36.50737        22.38426        -0.33613
C         37.73822        24.53109        -0.28694
C         36.51106        25.23440        -0.12511
C         37.72026        27.42243        -0.06390
C         36.50521        26.67037         0.08575
C         37.75529        28.83670         0.09563
C         36.56373        29.53791         0.42996
C         37.78747        31.66833         0.52686
C         36.54787        30.94394         0.59892
C         37.79279        33.08938         0.68650
C         36.56727        33.77486         0.81990
C         37.83942        35.98851         0.98728
C         36.53158        35.23963         1.03101
C         37.82800        37.41601         0.61248
C         36.59488        38.11820         0.50754
C         37.78694        40.24324        -0.06781
C         36.56114        39.52576         0.30576
C         37.85107        41.69503         0.00449
C         36.61677        42.45202         0.42399
C         37.83585        44.51653        -0.31438
C         36.60351        43.85096        -0.14384
C         37.87058        45.92422        -0.61043
C         36.59311        46.58140        -0.97507
C         37.81346        48.81708        -0.91114
C         36.59212        48.05808        -1.26777
C         37.75767        50.12161        -0.46171
C         36.46014        50.86960        -0.47967
C         37.30435        53.13242         0.31145
C         36.33815        52.32193        -0.32368
C         37.51312        54.48999         0.07068
C         36.49645        55.15245        -0.65265
C         40.23715        15.99865        -0.70869
C         39.03550        16.68137        -0.70436
C         40.20803        18.79788        -0.04192
C         38.96737        18.08188        -0.50903
C         40.21101        20.27437        -0.33170
C         38.98859        20.96661        -0.39430
C         40.21121        23.12119        -0.48223
C         38.97779        22.39996        -0.42975
C         40.20004        24.56557        -0.49667
C         38.97422        25.24249        -0.41204
C         40.25808        27.49140        -0.54947
C         38.91113        26.71181        -0.52192
C         40.24569        28.89010        -0.11174
C         39.01329        29.56230         0.07428
C         40.27482        31.65474         0.48193
C         39.01714        30.96330         0.35246
C         40.29486        33.07354         0.61924
C         39.05760        33.81345         0.70377
C         40.35661        35.93132         1.07888
C         39.07035        35.20190         0.81841
C         40.29143        37.39667         0.70846
C         39.09836        38.06460         0.47649
C         40.33319        40.27470         0.14075
C         39.13063        39.47155         0.01629
C         40.32197        41.64148        -0.15438
C         39.06044        42.36178        -0.17960
C         40.31057        44.49799        -0.38185
C         39.08430        43.80484        -0.25599
C         40.32007        45.92140        -0.54370
C         39.06999        46.61375        -0.70722
C         40.35181        48.76744        -0.72735
C         39.10702        48.05806        -1.18068
C         40.30891        50.15829        -0.49762
C         39.04947        50.78337        -0.20654
C         40.28393        52.88595         0.18819
C         39.17179        52.03073         0.39048
C         40.16521        54.36566         0.32311
C         38.85320        55.12936         0.35766
C         40.04225        56.95869         1.54114
C         38.88655        56.42017         1.08167
C         42.71923        16.02415        -0.78490
C         41.48558        16.70097        -0.61385
C         42.70191        18.82709        -0.43315
C         41.48493        18.09982        -0.41816
C         42.67739        20.25613        -0.41540
C         41.44755        20.97443        -0.41205
C         42.68388        23.13890        -0.52303
C         41.43297        22.40873        -0.51221
C         42.67257        24.57037        -0.57688
C         41.46403        25.28937        -0.55183
C         42.72245        27.43095        -0.30328
C         41.49560        26.71888        -0.46904
C         42.73836        28.82659        -0.02643
C         41.48924        29.54847         0.13240
C         42.77490        31.56656         0.92282
C         41.49310        30.91938         0.45432
C         42.74907        33.06966         0.73970
C         41.56674        33.76467         0.63335
C         42.82095        36.00248         0.71250
C         41.54140        35.26163         0.38117
C         42.84405        37.38320         0.69725
C         41.56551        38.12761         0.80108
C         42.83829        40.28515         0.22431
C         41.57532        39.62267         0.57111
C         42.79548        41.62576        -0.17709
C         41.56748        42.35854        -0.25028
C         42.77652        44.51949        -0.44840
C         41.56491        43.78266        -0.39011
C         42.78885        45.93359        -0.43212
C         41.55280        46.63049        -0.55186
C         42.79158        48.78720        -0.40392
C         41.56260        48.07325        -0.59465
C         42.77753        50.19779        -0.34008
C         41.53045        50.88298        -0.32744
C         42.73571        53.13875        -0.26858
C         41.49457        52.29789        -0.13981
C         42.65545        54.41369         0.55638
C         41.40991        55.02748         0.79627
C         42.53414        56.95876         1.74500
C         41.33554        56.32025         1.36285
C         43.91704        16.71771        -0.70462
C         45.19443        18.83465        -0.31664
C         43.94315        18.11539        -0.51616
C         45.19928        20.24956        -0.27232
C         43.95632        20.98017        -0.72745
C         45.11665        23.17674        -0.06575
C         43.88941        22.44228        -0.40351
C         45.20679        24.59683        -0.42304
C         43.95466        25.28959        -0.92768
C         45.16546        27.42793        -0.51331
C         43.96222        26.74487        -0.51802
C         45.21278        28.83465        -0.24551
C         43.99063        29.52424         0.03109
C         45.26230        31.59125         0.32616
C         44.03635        30.91583         0.35640
C         45.33219        33.01471         0.75174
C         44.03495        33.76149         0.97091
C         45.36940        35.98556         0.75053
C         44.05054        35.25719         0.98697
C         45.30979        37.42765         0.42354
C         44.07962        38.13303         0.55428
C         45.29799        40.23556         0.09688
C         44.06366        39.54165         0.29969
C         45.32219        41.63874        -0.14062
C         44.06164        42.30720        -0.47892
C         45.31135        44.53474        -0.28136
C         44.06229        43.82234        -0.59307
C         45.28000        45.94672        -0.14293
C         44.03530        46.65703        -0.30247
C         45.25151        48.79704        -0.05770
C         44.02969        48.06794        -0.25589
C         45.23939        50.22389        -0.01528
C         44.00237        50.94574        -0.13374
C         45.18618        53.05846         0.28249
C         43.98816        52.33958         0.00100
C         45.14408        54.44815         0.61869
C         43.85206        55.08822         0.88975
C         43.76252        56.35324         1.51653
C         47.59531        18.83101         0.10208
C         46.40846        18.14583        -0.09425
C         47.61954        20.24241         0.14433
C         46.39629        20.93799        -0.01437
C         47.66895        23.13829        -0.01224
C         46.40014        22.41025         0.14488
C         47.66788        24.52917        -0.22605
C         46.41196        25.24438        -0.44048
C         47.68474        27.42555        -0.56910
C         46.42109        26.69048        -0.90925
C         47.71043        28.79795        -0.42503
C         46.46049        29.53277        -0.24756
C         47.74598        31.65481        -0.03312
C         46.48643        30.92253        -0.00010
C         47.76798        33.05751         0.10071
C         46.55476        33.79177         0.41832
C         47.73667        35.88292        -0.11765
C         46.54179        35.17041         0.37569
C         47.73696        37.38162        -0.18627
C         46.50024        38.11267         0.13785
C         47.76979        40.22564        -0.02594
C         46.52596        39.52240         0.07099
C         47.76749        41.64016        -0.00947
C         46.52554        42.35934        -0.12007
C         47.70665        44.52406         0.19217
C         46.51430        43.81152        -0.12613
C         47.69797        45.92000         0.31555
C         46.49162        46.65571         0.11966
C         47.68568        48.83770         0.27646
C         46.48012        48.09781         0.13667
C         47.69538        50.24246         0.21221
C         46.45506        50.94788         0.12435
C         47.65836        53.09780         0.38748
C         46.43765        52.37034         0.25617
C         47.58617        54.48467         0.61120
C         46.35913        55.13313         0.76415
C         50.08439        20.32619         0.49876
C         48.86921        20.98613         0.27063
C         50.13115        23.11183         0.06281
C         48.88867        22.40834         0.09146
C         50.14002        24.52442        -0.18266
C         48.91911        25.20404        -0.36640
C         50.23476        27.37780        -0.66991
C         48.92177        26.63777        -0.71547
C         50.20197        28.83181        -0.44766
C         48.97838        29.51897        -0.36807
C         50.22406        31.64225        -0.27257
C         48.98447        30.94547        -0.22516
C         50.24356        33.07847        -0.18635
C         49.01221        33.77574        -0.01607
C         50.23045        35.92377        -0.13009
C         49.02883        35.19008        -0.04791
C         50.23185        37.37320        -0.12665
C         49.02245        38.09378        -0.10406
C         50.24456        40.22563         0.00649
C         49.01317        39.51111        -0.02659
C         50.23340        41.65229         0.13124
C         48.99948        42.33436         0.14524
C         50.27552        44.51217         0.54306
C         48.94242        43.76222         0.47054
C         50.25497        45.96904         0.42399
C         48.95812        46.63572         0.64218
C         50.22382        48.84472         0.31054
C         48.95295        48.14716         0.57618
C         50.19242        50.27062         0.21293
C         48.94181        50.97399         0.25723
C         50.16241        53.08222         0.22649
C         48.92563        52.38815         0.29126
C         51.29289        21.01801         0.51566
C         52.61673        23.11526         0.26516
C         51.35020        22.40128         0.27806
C         52.63417        24.52240         0.06091
C         51.40917        25.23766        -0.17567
C         52.68219        27.35402        -0.23201
C         51.45429        26.63040        -0.32768
C         52.68572        28.78261        -0.31690
C         51.45080        29.51222        -0.35516
C         52.71664        31.62167        -0.41872
C         51.46430        30.93148        -0.35690
C         52.71992        33.10045        -0.69755
C         51.45421        33.80546        -0.28160
C         52.71542        35.94928        -0.21491
C         51.46753        35.21417        -0.20294
C         52.71070        37.36792        -0.16153
C         51.47204        38.08793        -0.11950
C         52.71472        40.23699        -0.07603
C         51.47576        39.51023        -0.05614
C         52.71649        41.65855        -0.01983
C         51.48616        42.37568         0.14285
C         52.71231        44.52752         0.08925
C         51.50545        43.78066         0.23591
C         52.69314        45.95736         0.12278
C         51.43911        46.67644         0.26193
C         52.66968        48.84150         0.07973
C         51.42999        48.13050         0.22481
C         52.66285        50.26418         0.04643
C         51.41558        50.98986         0.11873
C         51.36233        52.40882         0.12092
C         55.04864        23.11978         0.44945
C         53.83911        22.44157         0.45935
C         55.10303        24.51394         0.25557
C         53.87999        25.22574         0.07222
C         55.15313        27.35564        -0.12882
C         53.90276        26.64683        -0.08095
C         55.14791        28.76612        -0.26815
C         53.92643        29.48342        -0.31269
C         55.18532        31.64860        -0.21894
C         53.92207        30.92736        -0.38352
C         55.16283        33.10720        -0.09043
C         53.97253        33.81058        -0.24328
C         55.18488        35.96085        -0.11901
C         53.95470        35.24055        -0.19016
C         55.18158        37.39072        -0.14799
C         53.94709        38.09509        -0.15807
C         55.18192        40.23956        -0.23383
C         53.94677        39.52354        -0.14764
C         55.17662        41.67718        -0.22607
C         53.95058        42.38280        -0.09739
C         55.16733        44.54401        -0.11455
C         53.94399        43.81752        -0.05386
C         55.14903        45.97277        -0.08402
C         53.91231        46.67913         0.01258
C         55.13153        48.83472        -0.08874
C         53.90685        48.12216         0.00283
C         55.09404        50.25501        -0.12269
C         53.90476        50.94469        -0.06103
C         57.60083        24.54197         0.43084
C         56.36604        25.22958         0.20873
C         57.68945        27.30565        -0.27883
C         56.37355        26.61647        -0.02387
C         57.66571        28.79014        -0.03801
C         56.43943        29.51677        -0.52947
C         57.57858        31.64338         0.46789
C         56.36391        30.96038        -0.10346
C         57.62564        33.11977         0.16473
C         56.40828        33.82428         0.03498
C         57.65816        35.96835        -0.03914
C         56.41598        35.25071        -0.05160
C         57.66509        37.38968        -0.14956
C         56.41623        38.11223        -0.20730
C         57.66630        40.24343        -0.67662
C         56.40024        39.51893        -0.31282
C         57.65371        41.71723        -0.35252
C         56.41780        42.40750        -0.26826
C         57.64049        44.55457        -0.21924
C         56.40709        43.83240        -0.19580
C         57.62339        45.98491        -0.19662
C         56.38517        46.69801        -0.14408
C         57.63317        48.80576        -0.17984
C         56.38775        48.11946        -0.13993
C         58.80266        25.22640         0.55248
C         60.05164        27.35280         0.58350
C         58.86955        26.61209         0.34102
C         60.06347        28.72707         0.48958
C         58.85425        29.46855         0.21144
C         60.05668        31.64681         0.15974
C         58.87490        30.91737         0.22304
C         60.06723        33.04848         0.17214
C         58.86800        33.80469         0.15626
C         60.09809        35.98155         0.10572
C         58.88593        35.24927         0.06745
C         60.10743        37.35846         0.02319
C         58.90569        38.10207        -0.12806
C         60.10396        40.28487        -0.16755
C         58.92269        39.52913        -0.24930
C         60.09963        41.67197        -0.25703
C         58.88193        42.41844        -0.30637
C         60.09296        44.61076        -0.27306
C         58.88195        43.85925        -0.25757
C         60.08034        45.98568        -0.26268
C         58.85107        46.70254        -0.22634
C         58.82858        48.12221        -0.21739
O         37.16924        35.68582         2.28295
O         45.60389        22.86412         1.30494
O         44.79441        33.20403         2.11110
O         44.11573        42.97174        -1.79188
O         38.43399        39.67146        -1.25468
O         39.66565        55.07446        -0.88146
O         44.84113        35.76150         2.10245
O         49.64845        26.95110        -1.96806
O         29.80358        24.76222         1.62753
O         47.55106        36.57102        -1.42227
O         25.00832        39.99661         2.26737
O         31.46116        26.10039        -1.22864
O         38.15917        52.50615         1.22073
O         34.93158        29.04303         2.16219
O         49.57051        44.05807         1.76040
O         33.37990        33.52522         2.29443
O         39.47708        27.23711        -1.76639
O         41.56160        39.07503         1.94692
O         48.91270        47.43913         1.87214
O         36.72304        47.09786        -2.38755
O         30.37762        37.33187        -1.57838
H         30.38756        38.26076        -1.89480
O         44.01603        25.24348        -2.39086
H         44.82246        25.75281        -2.66279
O         39.24110        47.99316        -2.63966
H         38.42410        47.54626        -2.97311
O         24.11009        41.78749        -1.37252
H         24.77923        42.26877        -1.90409
O         36.71069        42.61766         1.89741
H         37.52492        43.13426         2.07921
O         42.82218        53.57684        -1.66513
H         42.01343        54.09940        -1.85716
O         41.30654        35.43395        -1.04735
H         41.97472        34.91581        -1.54208
O         52.74102        33.20127        -2.17181
H         52.73740        34.15540        -2.40019
O         56.57168        29.54950        -1.99803
H         56.85168        28.63835        -2.27023
O         57.70224        40.19266        -2.16976
H         58.52752        40.64670        -2.44621
O         40.61204        35.84648         2.50396
H         39.81929        36.17336         2.97997
O         57.90168        27.16412        -1.77127
H         58.83418        27.42141        -1.94280
O         46.41143        26.64236        -2.38934
H         47.33354        26.47775        -2.68849
O         42.83197        31.31738         2.36744
H         43.56627        31.88277         2.71428
O         26.64115        44.21397         1.90205
H         25.91348        43.69317         2.30468
O         57.38817        31.56214         1.94527
H         58.14976        32.02434         2.35704
O         32.47439        28.39745         2.50389
H         33.35337        28.36113         2.95278
O         40.14994        18.70646         1.44862
H         40.16420        17.75098         1.67290
O         35.08274        48.99470        -2.86836
H         35.41593        48.17510        -3.30261
O         44.06625        20.94861        -2.21936
H         43.28557        21.42393        -2.57854
H         21.96312        26.92723        -0.13976
H         21.96325        29.38087        -0.05001
H         21.98004        31.26092         0.05341
H         21.99784        33.67843         0.19766
H         22.00724        35.53898         0.50135
H         22.03841        37.96325         0.83270
H         22.04760        39.97717         1.50761
H         22.06116        42.29550         0.77440
H         22.05971        43.89021        -0.54683
H         22.04418        46.32486        -1.01982
H         25.26399        23.51317        -0.03350
H         23.16322        24.78720        -0.13417
H         25.37355        49.69809        -1.39124
H         23.26200        48.45334        -1.29962
H         26.91171        22.54527        -0.02886
H         26.99178        50.63776        -1.48400
H         28.98037        21.31950        -0.19645
H         29.08448        51.83197        -1.72626
H         32.75666        19.20504        -0.78185
H         30.65535        20.40611        -0.60173
H         32.78675        54.05785        -1.62390
H         30.70676        52.79648        -1.77649
H         34.37632        18.26484        -0.82296
H         34.53015        55.00960        -1.49762
H         36.47063        17.04965        -0.84493
H         36.58870        56.22336        -0.88043
H         40.25123        14.91156        -0.87011
H         38.11585        16.11023        -0.89284
H         40.01959        57.92160         2.07373
H         37.92906        56.92505         1.27900
H         42.71887        14.93886        -0.95976
H         42.49190        57.95598         2.20634
H         44.85692        16.15942        -0.81014
H         44.67741        56.88267         1.81601
H         48.52151        18.25442         0.22432
H         46.42920        17.04797        -0.09652
H         48.50523        55.07630         0.71916
H         46.36166        56.20741         0.99461
H         50.10363        19.24242         0.67250
H         50.17435        54.18040         0.23343
H         52.21094        20.44755         0.70577
H         52.28729        52.99631         0.05204
H         55.96862        22.53940         0.59445
H         53.85590        21.35532         0.61546
H         56.02564        50.82932        -0.20455
H         53.93143        52.04153        -0.09567
H         57.60085        23.45879         0.60534
H         57.65776        49.90309        -0.17277
H         59.70954        24.68516         0.86139
H         60.95922        26.81637         0.89886
H         60.98974        29.27063         0.71659
H         61.01998        31.12747         0.05755
H         61.03928        33.55540         0.12317
H         61.05756        35.45754         0.20690
H         61.07422        37.87771         0.05523
H         61.06848        39.78515        -0.00170
H         61.06113        42.19696        -0.19431
H         61.06030        44.09253        -0.30546
H         61.02514        46.54778        -0.28328
H         59.77977        48.67319        -0.24098
