         294
 CSIRO Nanostructure Databank - Neutral Graphene Oxide Data Set
C          1.52444         2.19956        -2.07794
C          1.38369         3.41359        -1.45820
C          2.77909         1.53882        -2.25107
C          2.55212         4.12627        -0.90594
C          1.17733         6.32959        -0.55489
C          1.11125         7.65401        -0.35139
C          2.49295         5.59842        -0.38020
C          2.32904         8.44228         0.09746
C          1.01265        10.69970         0.10252
C          0.99960        12.04019         0.34734
C          2.24015         9.95571        -0.04263
C          2.28245        12.80624         0.60604
C          1.18725        15.14425         1.04076
C          1.23507        16.48794         1.02030
C          2.21902        14.31301         0.36026
C          2.34525        17.24033         0.30498
C          2.58749        18.63345         0.84096
C          3.97455         2.17231        -1.92567
C          3.88173         3.53128        -1.32911
C          5.23252         1.50269        -1.83521
C          5.10893         4.37409        -1.37622
C          3.56834         6.45776        -1.09791
C          3.55049         7.90172        -0.63883
C          4.99623         5.82439        -1.01702
C          4.63258         8.72241        -0.87187
C          3.44707        10.65843        -0.04324
C          3.41311        12.16765        -0.21845
C          4.69089        10.00696        -0.22205
C          4.75070        12.86750        -0.07432
C          3.50711        15.00356         0.02393
C          3.65948        16.43572         0.49348
C          4.76155        14.22139        -0.10097
C          4.87669        17.12975        -0.08159
C          3.73596        19.26736         0.57213
C          4.82755        18.63602        -0.26442
C          6.40170         2.12773        -1.35497
C          6.41957         3.61232        -1.29592
C          7.56608         1.43507        -0.95610
C          7.64952         4.32439        -0.84577
C          6.06827         6.17920         0.04970
C          6.11347         7.57939         0.69163
C          7.47516         5.67915        -0.26573
C          7.27667         8.45215         0.40411
C          5.86203        10.69634         0.47168
C          6.03828        12.06748        -0.22044
C          7.19592         9.92718         0.64472
C          7.25931        12.82257         0.28452
C          6.05429        14.94034        -0.41779
C          6.01582        16.45320        -0.33826
C          7.19413        14.33177         0.41745
C          7.29242        17.16825        -0.77997
C          6.18095        19.24912         0.00156
C          7.35051        18.62921        -0.24935
C          8.75940         2.06773        -0.49950
C          8.95878         3.56372        -0.67503
C          9.88898         1.36240        -0.09948
C          9.91144         4.17705         0.31695
C          8.55533         6.35379         0.23183
C          8.48835         7.79938         0.40370
C          9.75030         5.60538         0.79376
C          9.71958         8.56295         0.76128
C          8.47641        10.70664         0.66873
C          8.43022        12.18961         0.53757
C          9.79296        10.01207         0.32358
C          9.66011        12.88228         1.11811
C          8.54134        14.88199        -0.05197
C          8.52171        16.36724        -0.34936
C          9.68780        14.39468         0.82940
C          9.74010        16.90069        -0.56668
C          8.59384        19.51128         0.07644
C          9.91431        19.12456        -0.54152
C         11.10960         2.03429         0.29356
C         11.04158         3.47217         0.60593
C         12.29212         1.33749         0.41567
C         12.24575         4.17317         1.13705
C         11.05081         6.39635         0.57976
C         10.95353         7.82150         1.13052
C         12.26413         5.66689         1.10711
C         12.28119         8.56238         1.34991
C         11.05337        10.73246         0.80429
C         11.02173        12.25400         0.66363
C         12.21850        10.05399         0.98294
C         12.23191        12.97898         1.39108
C         10.97780        15.16364         0.79721
C         10.95437        16.62383         0.29156
C         12.28094        14.44779         0.92165
C         12.22849        17.10891        -0.42480
C         11.17336        19.49514        -0.20067
C         12.33728        18.64887        -0.50510
C         13.57346         1.98020         0.77507
C         13.56479         3.45200         1.10606
C         14.84618         1.35065         0.36339
C         14.80352         4.26644         0.81522
C         13.51840         6.43055         0.83890
C         13.46164         7.77955         0.79667
C         14.63739         5.65116         0.18000
C         14.55476         8.66378         0.29633
C         13.49077        10.74245         1.40658
C         13.57237        12.25700         1.08346
C         14.69737         9.83112         1.37477
C         14.79468        13.07967         1.48149
C         13.44161        15.09817         0.65076
C         13.47102        16.59065         0.31893
C         14.77792        14.54586         1.12697
C         14.67408        16.96893        -0.53322
C         13.56285        19.20046        -0.75575
C         14.76019        18.39819        -0.92850
C         16.02826         2.03917         0.30604
C         16.04980         3.52194         0.45847
C         17.29329         1.37276         0.07937
C         17.14307         4.27692        -0.23419
C         15.93419         6.42233         0.05221
C         15.92294         7.95280        -0.09674
C         17.11682         5.77096        -0.12731
C         17.14040         8.43864         0.73521
C         16.04273        10.37314         1.59898
C         16.03842        12.56807         1.77431
C         17.19769         9.93049         1.04515
C         17.35201        13.03915         1.33199
C         16.00227        14.81006         0.20333
C         15.93325        16.16141        -0.49681
C         17.34424        14.54121         0.96505
C         17.17756        16.80507        -0.94271
C         15.92456        18.88599        -1.46475
C         17.13503        18.09073        -1.55070
C         18.46491         2.06182        -0.13283
C         18.43242         3.52022        -0.40735
C         19.75182         1.41236        -0.21908
C         19.70369         4.25366        -0.36977
C         18.41181         6.51015        -0.28789
C         18.46025         8.00301         0.09206
C         19.69551         5.73702        -0.33488
C         19.65057         8.44438         0.97892
C         18.46028        10.69363         1.15529
C         18.44359        12.19392         1.15794
C         19.64208         9.97005         1.07899
C         19.82037        12.90052         1.00227
C         18.53368        14.97825         0.11361
C         18.37716        16.06887        -0.88899
C         19.79177        14.17474         0.13427
C         19.50416        16.51919        -1.58295
C         18.31367        18.60265        -2.11760
C         19.49381        17.81902        -2.17809
C         20.90408         2.12685        -0.38590
C         20.90069         3.57470        -0.40410
C         22.14036         4.34115        -0.53917
C         20.95058         6.32207         0.30527
C         20.93964         7.82875         0.45192
C         22.17345         5.67065        -0.30716
C         22.13545         8.55151         0.50952
C         20.97445        10.65216         1.33458
C         20.90907        11.95166         0.56628
C         22.18571         9.86131         0.93781
C         21.70656        12.17617        -0.50438
C         20.74122        14.36049        -0.99675
C         20.65664        15.59202        -1.87979
C         21.62598        13.38091        -1.29843
C         21.95040        16.34842        -2.02404
C         20.71798        18.34489        -2.68443
C         21.92854        17.63536        -2.50731
O          7.31881         4.22828        -2.28509
O         14.04532         9.31922        -0.82165
O         19.13898         6.31040        -1.54851
O         14.96979        16.05065        -1.63199
O         12.08154         4.97402         2.37620
O          5.32681         5.44290        -2.36818
O          2.50331        14.74888        -1.01256
O          7.85966        10.28392         1.92776
O          3.36104         3.35106         0.05036
O          5.34631         7.84858         1.61500
O         16.07367        11.40339         2.53698
O         19.68421        15.37339         0.98622
O         13.92947        10.01621         2.60205
O         10.00535         8.19090         2.15356
O          9.81319        18.02014        -1.42257
O         13.66764         2.48767         2.17979
O         15.84716         4.09315         1.80252
O         10.10592        15.11598         2.00865
O         17.52069         3.81736        -1.55758
O         12.53169         8.62379         2.75082
O          2.49696         8.22925         1.53028
H          2.66543         7.26013         1.65556
O          2.78414         5.56701         1.03127
H          3.34125         4.76236         1.19124
O         13.69018        12.23527        -0.37476
H         14.59356        12.54777        -0.64223
O          8.86844        14.26024        -1.32615
H          8.04912        14.28124        -1.88153
O          9.70982         3.68141        -1.92529
H          9.04000         3.75568        -2.64734
O          3.90066        16.33403         1.92229
H          4.06291        17.23636         2.27009
O         17.37946        15.33078         2.15961
H         18.32116        15.54937         2.34040
O         20.15284        13.31677         2.36082
H         20.06431        14.30186         2.38764
O          2.57820        12.66263         2.01274
H          2.83282        11.72985         2.18186
O         14.97068        15.25584         2.39036
H         14.44747        14.78585         3.07455
O         11.09305        12.53866        -0.75048
H         12.02624        12.36141        -1.03665
O         13.54865        17.32555         1.55529
H         14.19440        16.85132         2.13844
O         21.09582        10.86213         2.76959
H         20.75278        11.76723         2.97556
O          3.13662         6.45069        -2.47626
H          3.92644         6.60280        -3.04269
O         11.22557         6.53979        -0.84917
H         12.13193         6.25317        -1.10778
O         15.95683        13.81048        -0.85011
H         15.51720        14.24090        -1.62424
O         18.65541         8.77154        -1.10628
H         17.87389         8.59309        -1.68903
O          9.45251         5.54009         2.20715
H         10.29741         5.33119         2.68159
O         19.51053         7.96030         2.34744
H         20.12510         8.48470         2.90587
O          5.65700         8.33387        -1.70274
H          6.26778         9.08474        -1.85366
O          5.66744         5.31634         1.16251
H          5.46516         5.90530         1.92927
O         12.24181        16.55427        -1.74684
H         11.55472        17.01233        -2.27685
O          2.01529        17.36744        -1.08816
H          1.93929        16.45213        -1.45156
O         16.93039         7.77743         2.00156
H         17.76047         7.83703         2.53525
O          7.23460        17.23970        -2.24001
H          8.10334        17.60386        -2.53124
O         12.09564        12.94101         2.81136
H         11.16428        13.18012         3.04807
O          9.86964         9.99903        -1.12555
H         10.24164        10.87259        -1.40270
O         14.13981         5.38924        -1.18081
H         14.51080         6.07877        -1.77462
O          8.78207        19.52742         1.49865
H          9.42350        18.81023         1.72384
O          9.48212        12.74072         2.54986
H          9.16624        11.82823         2.74153
O         20.88259         5.81489         1.68409
H         21.69793         6.09521         2.14999
O          6.31592        14.63304        -1.84017
H          6.37920        15.49265        -2.32695
O         16.11710         8.22308        -1.49110
H         15.32707         8.80562        -1.73515
O          6.23630        11.78913        -1.63494
H          6.33946        12.66549        -2.08014
O          4.52989        18.88994        -1.66611
H          5.22669        18.44239        -2.19457
O         10.76570        17.46434         1.46570
H         10.44529        16.87285         2.18964
O         20.37118        15.05761        -3.23097
H         20.33065        15.82452        -3.84207
O          3.04486        12.30361        -1.61879
H          3.83157        12.07448        -2.15781
O          6.96613        14.69443         1.78627
H          7.62657        14.23331         2.34888
O          5.37405        10.97863         1.79958
H          5.34630        10.12543         2.28835
H          0.62261         1.69015        -2.44823
H          0.38826         3.87511        -1.39974
H          2.79180         0.51482        -2.65075
H          0.27106         5.77410        -0.83887
H          0.14671         8.17272        -0.46195
H          0.05653        10.15799         0.04417
H          0.03877        12.55344         0.50528
H          0.37558        14.62315         1.57114
H          0.44070        17.06988         1.51395
H          1.80108        19.12701         1.43405
H          5.25291         0.41864        -2.02844
H          3.90369        20.29300         0.93787
H          7.54375         0.33335        -0.97217
H          6.19296        20.29618         0.34804
H          9.87924         0.26095        -0.10059
H          8.32118        20.56005        -0.22678
H         12.31116         0.26546         0.16392
H         11.33357        20.38942         0.42028
H         14.84204         0.26586         0.17449
H         13.65712        20.29251        -0.86199
H         17.31535         0.27435         0.14742
H         15.96890        19.92855        -1.81467
H         19.78794         0.31560        -0.14230
H         18.32078        19.62010        -2.53538
H         21.87008         1.60587        -0.45543
H         23.03936         3.81131        -0.88887
H         23.10523         6.23454        -0.45709
H         23.08208         8.05599         0.24485
H         23.16369        10.34069         1.08984
H         22.45992        11.42539        -0.78693
H         22.30193        13.49178        -2.15698
H         22.90284        15.81285        -1.90160
H         20.73677        19.36269        -3.09811
H         22.87573        18.14254        -2.74388
