         272
 CSIRO Nanostructure Databank - Neutral Graphene Oxide Data Set
C        -11.31311         0.92726         0.25392
C        -10.06621         1.68142         0.06435
C         -8.79630         0.84174         0.06480
C         -7.58871         1.39538        -0.60993
C         -6.30137         0.69281        -0.34078
C         -5.04543         1.42655        -0.70882
C         -3.74879         0.83720        -0.23198
C         -2.47362         1.60506        -0.39424
C         -1.14154         0.90035        -0.39343
C          0.05881         1.53495        -1.02977
C          1.29688         0.71628        -1.41428
C          2.53946         1.49015        -1.03042
C          3.84955         0.75393        -1.07914
C          5.00675         1.50947        -0.44228
C          6.02086         0.76399         0.44532
C          7.40180         1.44888         0.55285
C          8.70874         0.71012         0.41576
C          9.96338         1.47920         0.21777
C         11.18694         0.73524         0.03904
C        -10.05966         3.03409        -0.56328
C         -8.90322         3.64038        -0.90848
C         -7.63171         2.85564        -0.94333
C         -6.34913         3.61582        -0.85409
C         -5.07154         2.87703        -1.10075
C         -3.83646         3.73795        -1.01708
C         -2.51543         3.05191        -0.85343
C         -1.29646         3.68284        -1.49034
C          0.00712         2.89345        -1.73081
C          1.26653         3.68992        -1.33968
C          2.55272         2.91932        -1.32784
C          3.90518         3.63354        -1.20784
C          5.04208         2.86518        -0.57706
C          6.31312         3.60925        -0.31867
C          7.38416         2.98555         0.57189
C          8.73773         3.63259         0.30930
C          9.94932         2.84873         0.23729
C         -8.78482         5.05631        -1.46872
C         -7.73531         5.82175        -0.62094
C         -6.36332         5.10248        -0.77134
C         -5.23498         5.92094        -1.42046
C         -3.85765         5.13918        -1.69067
C         -2.61228         5.85062        -1.11292
C         -1.31310         5.18616        -1.47427
C          0.01079         5.93197        -1.30222
C          1.24006         5.02761        -1.11967
C          2.50243         5.80902        -0.89642
C          3.85402         5.14599        -1.06542
C          5.11933         5.93063        -0.63148
C          6.38277         5.08843        -0.48302
C          7.61828         5.88609        -0.03173
C          8.80811         4.98459         0.18605
C         -7.64777         7.36513        -0.87730
C         -6.30608         7.88504        -0.38057
C         -5.15184         7.19522        -0.60836
C         -3.91211         7.58203         0.16914
C         -2.63888         6.96524        -0.35509
C         -1.39338         7.43952         0.30554
C         -0.07023         6.88039        -0.11368
C          1.18380         7.55323         0.31829
C          2.40058         7.03952        -0.04437
C          3.57362         7.39091         0.81296
C          4.88511         6.70428         0.65798
C          6.06703         7.23799         1.39748
C          7.31763         6.79395         1.13580
C         -6.26044         9.11953         0.40609
C         -5.09237         9.70736         0.73709
C         -3.78421         9.11349         0.26119
C         -2.58589         9.48058         1.09302
C         -1.42571         8.73275         1.03797
C         -0.21934         9.17318         1.63911
C          1.05507         8.61411         1.33488
C          2.17996         9.11307         1.97193
C          3.55896         8.73100         1.52849
C          4.60784         8.80954         2.60751
C          5.77922         8.15473         2.50028
C        -11.27855        -0.34229         0.74106
C        -10.03004        -1.05369         0.92307
C         -8.85307        -0.60791         0.34121
C         -7.53733        -1.37369         0.54124
C         -6.29429        -0.60164         0.09039
C         -4.97006        -1.23110         0.54141
C         -3.75824        -0.66211        -0.21266
C         -2.44146        -1.34406        -0.21664
C         -1.17100        -0.55379         0.10378
C          0.05411        -1.37053        -0.28647
C          1.25062        -0.71773        -0.90675
C          2.55573        -1.38825        -0.73166
C          3.71309        -0.69103        -0.65706
C          4.96008        -1.45744        -0.40183
C          6.15384        -0.76008         0.15104
C          7.49010        -1.49198         0.06128
C          8.76063        -0.74082         0.11146
C          9.95960        -1.38799        -0.06332
C         11.18791        -0.62429        -0.06732
C         -9.77669        -3.33414        -1.01722
C         -8.65545        -3.72009        -0.27214
C         -7.46847        -2.80323        -0.11902
C         -6.14659        -3.49632        -0.07693
C         -5.01201        -2.79959         0.67282
C         -3.69137        -3.56765         0.22376
C         -2.36766        -2.81339         0.09040
C         -1.07821        -3.49965         0.41217
C          0.23712        -2.70441         0.46253
C          1.34766        -3.58842        -0.14090
C          2.53565        -2.87998        -0.78212
C          3.79908        -3.56134        -1.20856
C          5.07019        -2.72780        -1.20036
C          6.39358        -3.41125        -1.31707
C          7.56633        -2.85785        -0.56737
C          8.88748        -3.52909        -0.95456
C         10.05452        -2.90581        -0.16069
C         -8.56986        -5.07545         0.12173
C         -7.34303        -5.75886         0.34674
C         -6.02760        -5.05951        -0.07091
C         -4.90450        -5.59167         0.93276
C         -3.60310        -4.79711         1.16817
C         -2.28943        -5.57910         1.08755
C         -1.12043        -4.88170         0.99267
C          0.19329        -5.54370         1.18774
C          1.37032        -4.97017         0.45117
C          2.62648        -5.71647         0.73188
C          4.05240        -4.92239        -0.67360
C          4.55670        -6.11913        -1.08400
C          6.62016        -4.82959        -1.83572
C          7.58771        -5.69305        -1.06242
C          8.72419        -5.03493        -0.70023
C         -7.27889        -7.09972         0.65745
C         -5.99539        -7.89950         0.49969
C         -4.87744        -7.06722         1.13347
C         -3.60465        -7.75417         1.56760
C         -2.31048        -6.97874         1.60484
C         -1.02540        -7.76787         1.64659
C          0.24795        -7.02799         1.36145
C          1.34323        -7.76298         0.59066
C          2.67981        -7.07035         0.77539
C          3.99432        -7.84115         0.74624
C          5.12341        -7.02141         0.00271
C          6.25874        -7.82472        -0.61816
C          7.40005        -7.16308        -1.00269
C         -6.00551        -9.28813         1.09642
C         -4.84946        -9.91681         1.39540
C         -3.55011        -9.23803         1.42054
C         -2.36900        -9.91524         1.32511
C         -1.04504        -9.26212         1.47861
C          0.21535        -9.94261         1.05683
C          1.37018        -9.26443         0.78436
C          2.60259        -9.91073         0.35853
C          3.79245        -9.24125         0.18868
C          4.95463        -9.90565        -0.36372
C          6.10856        -9.25826        -0.71089
O          3.77584        -4.90653         0.74974
O          0.28422        -1.49184        -1.70782
O         -5.43266        -6.16291         2.15624
O         -3.10620        -7.18986         2.81689
O          5.86600        -2.55672        -2.39662
O          5.25847        -1.53766         1.01861
O         -3.73047         5.00794        -3.06747
O         -1.56822        -3.47818        -0.96296
O         -3.12659         1.45204         0.92444
O         -9.17567         1.64292         1.24212
O          2.78373        -3.31229        -2.19248
O         -6.09081         4.33653         0.43173
O          7.44513        -2.72799         0.87562
O          8.08445         0.96238         1.75690
O          3.23810         5.85786        -2.17182
O         -3.11851         3.83972         0.24065
O         -5.01959         1.85833        -2.12133
O          6.74899         4.21407        -1.59597
O          6.30703        -5.10267        -2.98769
O         -1.50180         4.46418        -2.71923
O         -5.77150        -5.53556        -1.33809
O          3.46323         3.19203        -2.50131
O          0.96646        -4.73394        -0.94284
O         -0.90309        -8.62364         2.81571
O         -3.19752        -1.16541        -1.46149
O         -4.87644        -0.70300         1.85053
O         -7.70585         1.83316        -2.00093
O         -0.13736         1.64927         0.39649
O         -0.74863         6.33963         1.05984
O          0.59517        -6.13788         2.46169
O         -6.59545        -2.85718        -1.29738
O          3.89816         6.17972         1.59965
O          0.93564        -7.59689        -0.80576
H          1.60906        -8.02405        -1.37615
O          4.53375        -6.61476        -2.34924
H          4.32388        -5.90552        -2.99321
O         -5.74834        -8.10251        -0.90639
H         -5.71897        -7.19350        -1.33907
O         -1.17765        -0.47521         1.55278
H         -1.84229         0.21591         1.80624
O          0.64426        -2.45038         1.81108
H          0.05655        -1.75243         2.18895
O          0.24471         6.75241        -2.46061
H          0.14311         6.19247        -3.25948
O          4.20275         0.64932        -2.50321
H          3.35630         0.58544        -3.01336
O          3.91961         9.73878         0.52403
H          3.35206         9.60276        -0.26451
O         -3.52591         9.63498        -1.07391
H         -4.31620         9.43929        -1.62211
O          5.36597         6.95051        -1.61261
H          5.37107         6.53049        -2.49826
O          7.98974         6.74416        -1.14132
H          8.01269         6.17906        -1.94299
O         -3.51862        -4.39123         2.54432
H         -3.93522        -5.11431         3.07320
O         -3.97445        -4.02082        -1.09867
H         -3.13036        -4.10104        -1.60100
O        -10.08777        -2.25626         1.55647
H         -9.18788        -2.44490         1.91725
O          1.41381         0.57053        -2.85527
H          0.85059        -0.19306        -3.12210
O          4.47319        -8.02874         2.10480
H          3.71408        -8.29437         2.66485
O          0.08479         2.62239        -3.13536
H         -0.29525         3.39511        -3.61410
O         10.07575        -3.44652         1.16351
H          9.19146        -3.26807         1.56407
O          5.42455         0.88742         1.75185
H          5.99751         0.40064         2.38376
O         -9.82299        -2.22694        -1.72497
H         -8.97701        -1.72824        -1.66940
O         -8.16015         5.72058         0.74878
H         -7.61183         5.02491         1.18571
O         -4.07317         7.10183         1.52618
H         -4.08913         6.12035         1.51124
O          9.15175        -3.29792        -2.35070
H          8.42416        -3.68068        -2.88718
O         -8.36305         4.96623        -2.82959
H         -7.52039         5.46342        -2.95523
O         -5.75845         6.25558        -2.73615
H         -5.07854         5.88800        -3.38264
O         -7.43940        -1.57423         1.97040
H         -6.58639        -1.14191         2.26739
O         -7.89579         7.74146        -2.22781
H         -7.11755         7.46946        -2.76932
O         -5.32619        -3.06808         2.02975
H         -5.00353        -2.27380         2.54267
O          6.98619         3.37116         1.91015
H          7.42748         2.74654         2.52920
O          5.77944        -6.18359         0.96984
H          5.57810        -6.55424         1.86070
H         12.13554        -1.16651        -0.19461
H         12.13029         1.29796        -0.01356
H         10.89605         3.39574         0.10702
H          9.79522         5.45846         0.06372
H          8.16710         7.17517         1.72220
H          6.56488         8.30170         3.25676
H          4.42886         9.49542         3.44878
H          2.06767         9.91269         2.72072
H         -0.25049        10.05202         2.30208
H         -2.59439        10.42459         1.66193
H         -5.07739        10.66619         1.27697
H         -7.21716         9.57742         0.69895
H         -8.45644         7.83407        -0.26269
H         -9.78129         5.57075        -1.40779
H        -11.01684         3.57385        -0.63481
H        -12.27249         1.41103         0.01783
H        -12.21031        -0.87800         0.97043
H        -10.66643        -3.98422        -1.10698
H         -9.47684        -5.69158        -0.01602
H         -8.18626        -7.61178         1.02462
H         -6.95593        -9.84267         1.11939
H         -4.86482       -10.98002         1.68147
H         -2.38720       -11.00565         1.17073
H          0.22028       -11.04473         1.05534
H          2.55526       -10.98174         0.09962
H          4.87767       -10.98973        -0.54117
H          6.94227        -9.83928        -1.13465
H          8.26733        -7.76961        -1.31767
H          9.55674        -5.57210        -0.21892
H         11.01972        -3.18341        -0.65137
