         598
 CSIRO Nanostructure Databank - Neutral Graphene Oxide Data Set
C         23.25656        69.10935        -2.64989
C         23.32623        70.37859        -3.30129
C         22.22134        70.91550        -4.01474
C         23.52387        72.87307        -4.63082
C         22.33388        72.14403        -4.66480
C         25.33908        65.48077         0.04982
C         25.29888        66.83550        -0.45098
C         24.25498        67.32857        -1.19732
C         25.47963        69.40851        -1.70635
C         24.31214        68.63171        -1.83960
C         25.70276        70.53946        -2.60628
C         24.54224        71.11759        -3.28585
C         25.86832        73.13587        -3.84250
C         24.65725        72.37190        -3.93870
C         27.81264        61.35245         0.94014
C         27.76065        62.70122         0.73514
C         26.48315        63.47274         1.01854
C         27.76634        65.60590         0.45556
C         26.49865        64.89231         0.48724
C         27.73573        67.08444         0.37398
C         26.43737        67.71515        -0.08862
C         27.77772        69.86709        -0.61468
C         26.48938        69.08364        -0.69346
C         28.01988        71.01663        -1.52491
C         26.99024        71.33823        -2.54119
C         28.15339        73.47487        -2.95778
C         26.98384        72.70080        -3.12159
C         30.21564        57.00594         1.53176
C         30.20240        58.39863         1.20453
C         29.04390        59.16885         1.15526
C         30.24021        61.24795         0.61703
C         29.04314        60.57996         0.85208
C         30.28472        62.68560         0.29620
C         28.95373        63.44974         0.28466
C         30.24271        65.66692         0.28397
C         28.96084        64.93036         0.38942
C         30.25852        67.15526         0.44068
C         29.00274        67.85512         0.24288
C         30.19597        70.02786         0.09654
C         28.98601        69.19807        -0.08027
C         30.24149        71.47513        -0.42046
C         29.15439        71.77007        -1.44233
C         30.48232        73.69843        -2.22420
C         29.26907        72.99771        -2.22721
C         32.73721        52.80256         1.83499
C         32.70217        54.21497         1.96310
C         31.47320        54.90162         1.89853
C         32.66161        57.08978         1.90420
C         31.40777        56.30248         1.73452
C         32.81308        58.30242         1.01472
C         31.48167        59.01432         0.77052
C         32.79761        61.21043         0.48113
C         31.48832        60.48473         0.48937
C         32.80039        62.72879         0.52328
C         31.51798        63.43044         0.54752
C         32.70515        65.62674         1.06302
C         31.53033        64.89341         0.48144
C         32.72348        67.11533         0.85713
C         31.46500        67.82652         0.46214
C         32.78445        70.02267         0.25309
C         31.47822        69.30621         0.45603
C         32.80408        71.27426        -0.55745
C         31.61983        71.90174        -0.93337
C         32.90961        73.76568        -1.89790
C         31.67506        73.14005        -1.67261
C         35.18032        48.69312         0.69343
C         35.18127        50.06899         0.98395
C         33.96965        50.74647         1.30861
C         35.16493        52.94910         1.23832
C         33.93264        52.12605         1.54645
C         35.17372        54.31158         1.87792
C         33.96248        54.93468         2.10454
C         35.23680        57.12374         2.24052
C         33.94679        56.39418         2.27616
C         35.16609        58.60353         2.07130
C         33.96612        59.20845         1.40525
C         35.26773        61.25489         0.80456
C         33.98844        60.51825         1.02657
C         35.23021        62.74204         0.81608
C         34.05984        63.44007         0.84511
C         35.27251        65.70786         1.50383
C         33.95560        64.81955         1.48230
C         35.23129        67.07854         0.81836
C         34.03720        67.77678         0.68449
C         35.26442        69.75335        -0.29115
C         34.05432        69.22551         0.38820
C         35.30597        71.18287        -0.64163
C         34.07918        71.86126        -0.87970
C         35.37432        73.76309        -1.75706
C         34.12523        73.15493        -1.50301
C         37.66979        44.58228        -0.65061
C         37.66220        45.93089        -0.19029
C         36.41571        46.60092         0.12729
C         37.65858        48.68473         0.50144
C         36.36954        47.94985         0.45197
C         37.69919        50.13839         0.81699
C         36.42250        50.82739         1.07218
C         37.68213        52.86358         1.66900
C         36.44388        52.17008         1.38066
C         37.63276        54.25491         2.04159
C         36.43596        54.98196         2.11192
C         37.69950        57.13620         2.70811
C         36.42483        56.42650         2.36642
C         37.74125        58.67120         2.48393
C         36.47962        59.35226         2.00161
C         37.89108        61.29829         0.92296
C         36.56479        60.54090         1.07383
C         37.74421        62.76386         1.30044
C         36.51400        63.48907         0.86592
C         37.78366        65.69757         1.28158
C         36.51212        64.96361         1.02196
C         37.75373        67.11579         1.01547
C         36.50742        67.71978         0.65820
C         37.80853        69.77827        -0.08327
C         36.56792        69.00085        -0.05443
C         37.79209        71.10419        -0.58440
C         36.55234        71.77825        -0.90898
C         37.83724        73.74380        -1.66316
C         36.58845        73.11770        -1.43867
C         40.10359        40.45695        -1.74930
C         40.10795        41.81628        -1.42082
C         38.89465        42.50413        -1.13990
C         40.14343        44.63666        -0.96180
C         38.86511        43.89178        -0.91443
C         40.17044        46.03894        -0.36762
C         38.88727        46.56758         0.07988
C         40.16573        48.55996         1.07994
C         38.88176        47.86912         0.75329
C         40.13347        50.03263         1.25374
C         38.96515        50.76903         1.26498
C         40.15648        52.86587         1.91741
C         38.91300        52.16898         1.63972
C         40.17074        54.18384         2.29235
C         38.86797        54.83502         2.67804
C         40.16861        56.87661         3.08598
C         38.95583        56.34228         2.68319
C         40.22649        58.99116         2.85344
C         39.00171        59.44734         2.29172
C         40.27914        61.41890         1.66611
C         39.04648        60.68623         1.66415
C         40.27379        62.83098         1.52477
C         38.98587        63.55091         1.57763
C         40.23648        65.72843         1.46088
C         38.98229        65.02391         1.41449
C         40.22787        67.17139         1.26158
C         38.97739        67.83415         0.93764
C         40.20724        69.93312         0.39433
C         38.99992        69.20213         0.44839
C         40.23721        71.21864        -0.22674
C         39.02345        71.80788        -0.70489
C         40.29445        73.75913        -1.51502
C         39.04921        73.12066        -1.29371
C         42.53256        36.26466        -2.84897
C         42.51165        37.68099        -2.81331
C         41.32365        38.38092        -2.61593
C         42.57234        40.60352        -2.37657
C         41.25914        39.82286        -2.39342
C         42.65373        41.74027        -1.36936
C         41.37073        42.54092        -1.30362
C         42.66317        44.58151        -0.70107
C         41.40763        43.88192        -1.00820
C         42.66362        45.92002        -0.08896
C         41.44917        46.61498         0.13916
C         42.68568        48.48364         1.15646
C         41.45926        47.87813         0.77612
C         42.66269        49.83610         1.79249
C         41.38852        50.63798         1.73702
C         42.72727        52.82352         1.85782
C         41.43129        52.13030         1.68703
C         42.74758        54.20403         2.41108
C         41.44641        54.88901         2.62613
C         42.66529        57.11763         2.61911
C         41.47373        56.36224         2.75085
C         42.70345        58.59135         2.54465
C         41.49060        59.40251         2.41864
C         42.73412        61.44501         1.80690
C         41.51385        60.73762         1.90137
C         42.71397        62.85004         1.63526
C         41.47176        63.56068         1.56833
C         42.69115        65.71135         1.87386
C         41.43412        65.00743         1.61085
C         42.68215        67.26867         1.68054
C         41.42367        67.89260         1.26094
C         42.73478        70.02776         0.76186
C         41.39377        69.40665         1.17723
C         42.73909        71.35033         0.05052
C         41.46049        71.92448        -0.41619
C         42.76720        73.77754        -1.44910
C         41.49974        73.15398        -1.12034
C         44.93782        33.39429        -2.90633
C         43.73953        34.11229        -2.92912
C         45.00844        36.21027        -2.80619
C         43.74080        35.52678        -2.88267
C         45.05864        37.62289        -2.76765
C         43.81122        38.38892        -2.94272
C         45.13706        40.48171        -2.24957
C         43.85667        39.89184        -2.69631
C         45.14427        41.83966        -1.71704
C         43.84808        42.63047        -1.72617
C         45.10516        44.46336        -0.39057
C         43.84497        43.90722        -0.90189
C         45.15521        45.87594         0.02377
C         43.89266        46.54390         0.28501
C         45.20757        48.39833         1.38389
C         43.90525        47.81798         0.90872
C         45.25924        49.84094         1.79005
C         43.97072        50.58562         1.98124
C         45.23426        52.84313         1.82279
C         43.99385        52.06947         2.07589
C         45.17976        54.27742         1.90869
C         43.97482        54.99578         2.22278
C         45.16260        57.12613         2.21857
C         43.92516        56.39924         2.35607
C         45.17514        58.54826         2.31863
C         43.92421        59.27349         2.37598
C         45.15474        61.40951         2.06403
C         43.96653        60.71970         2.10066
C         45.21448        62.79314         1.44360
C         43.95047        63.59222         1.62836
C         45.23300        65.70752         1.81694
C         43.95807        64.96120         1.74098
C         45.23477        67.20556         1.55507
C         43.95793        67.91671         1.29479
C         45.22300        69.81812         0.39545
C         43.96702        69.18133         0.75358
C         45.21670        71.20834         0.01740
C         43.99467        71.75308        -0.70018
C         45.19201        73.81153        -1.77728
C         43.99501        73.20785        -1.20446
C         46.16604        34.04824        -2.82229
C         47.46105        36.16610        -2.68361
C         46.22263        35.46339        -2.76209
C         47.51228        37.54584        -2.58832
C         46.28903        38.29911        -2.59668
C         47.57062        40.31446        -1.84457
C         46.29466        39.71433        -2.30295
C         47.59665        41.80116        -1.77494
C         46.32589        42.45679        -1.41091
C         47.65346        44.49605        -0.62557
C         46.39327        43.73385        -0.67150
C         47.61914        45.82032        -0.14833
C         46.38359        46.47145         0.22242
C         47.63830        48.64937         0.57264
C         46.54473        47.71030         1.07347
C         47.63800        50.02130         0.85522
C         46.57914        50.64269         1.76935
C         47.59359        52.90006         1.24699
C         46.41546        52.15228         1.53883
C         47.59296        54.31277         1.43056
C         46.39336        55.00550         1.77872
C         47.61922        57.13949         1.88109
C         46.38586        56.42405         1.97248
C         47.61389        58.55419         2.04316
C         46.41445        59.24758         2.24749
C         47.66809        61.46622         2.11393
C         46.41387        60.74207         2.54457
C         47.69165        62.80702         1.86051
C         46.47045        63.57506         1.74241
C         47.74969        65.68198         1.47417
C         46.49824        64.95026         1.66322
C         47.70484        67.09878         1.10821
C         46.49885        67.81573         1.08598
C         47.70244        69.82563         0.21909
C         46.44498        69.15274         0.58827
C         47.70327        71.33086         0.00654
C         46.38215        71.92871         0.14431
C         47.74932        73.79661        -1.68621
C         46.43866        73.69187        -1.16514
C         48.87727        38.21595        -2.58698
C         50.13409        40.38922        -1.92205
C         48.87960        39.59556        -1.94859
C         50.15857        41.73568        -1.62034
C         48.88869        42.51383        -1.60085
C         50.10137        44.50035        -0.78317
C         48.88339        43.87260        -1.00890
C         50.09629        45.86161        -0.24130
C         48.83039        46.58079        -0.08519
C         49.99820        48.74751        -0.26402
C         48.82725        47.98255         0.09802
C         49.82461        50.22069        -0.36045
C         48.72997        50.84197         0.43940
C         49.91655        53.02638         0.41717
C         48.75232        52.23349         0.69793
C         49.99116        54.34239         0.87533
C         48.82572        55.03971         1.34144
C         50.09667        57.15752         1.64624
C         48.84705        56.43163         1.62187
C         50.13871        58.53145         1.80122
C         48.87012        59.33114         1.71118
C         50.22724        61.40489         2.56146
C         48.92473        60.70830         2.35260
C         50.28731        62.86368         2.09755
C         48.98409        63.51356         1.67367
C         50.20477        65.57677         1.00323
C         48.94107        64.97809         1.48095
C         50.18657        67.03183         0.62449
C         48.93221        67.79228         0.76811
C         50.22383        69.91703         0.40730
C         48.96051        69.14393         0.50389
C         50.23845        71.42418         0.13562
C         48.93355        72.25454         0.06546
C         50.15806        73.63860        -1.63214
C         48.92891        73.24420        -1.10731
C         51.36475        42.48935        -1.46963
C         52.55293        44.62660        -1.18119
C         51.35528        43.84892        -1.12465
C         52.56690        46.01157        -1.00638
C         51.37897        46.69544        -0.43840
C         52.33479        48.87490        -1.20522
C         51.19455        48.13707        -0.61206
C         52.26179        50.37584        -1.30039
C         50.98111        51.06047        -0.85135
C         52.33680        53.26260        -0.49394
C         51.03131        52.50021        -0.41689
C         52.49830        54.46274         0.34857
C         51.31469        54.98318         1.02488
C         52.61472        57.16465         1.29440
C         51.37041        56.42200         1.53652
C         52.62775        58.56039         1.64045
C         51.39745        59.22272         1.92841
C         52.70596        61.08209         2.70959
C         51.45072        60.55700         2.39623
C         52.71124        63.30693         2.64347
C         51.50891        63.75089         2.16233
C         52.66421        65.72866         1.20732
C         51.49783        65.00769         1.43067
C         52.66884        67.03449         0.57975
C         51.45750        67.75457         0.48608
C         52.67819        69.79228        -0.05294
C         51.46649        69.13711         0.22618
C         52.69464        71.22005        -0.25090
C         51.50454        72.00346        -0.38027
C         52.58085        73.81035        -1.80661
C         51.45092        73.18399        -1.19965
C         53.71852        46.79799        -1.23917
C         54.83866        48.96918        -1.31469
C         53.66811        48.20203        -1.22788
C         54.84727        50.38453        -1.27806
C         53.56682        51.13758        -1.34561
C         54.90060        53.20801        -0.58474
C         53.60320        52.59484        -0.96202
C         54.94347        54.50017        -0.06415
C         53.71336        55.13810         0.40386
C         55.00615        57.25927         0.63693
C         53.75680        56.50245         0.85573
C         55.06591        58.69422         1.07130
C         53.84814        59.28466         1.65729
C         55.10356        61.42826         1.75871
C         53.91373        60.57745         2.19856
C         55.21220        62.94419         2.06867
C         54.03528        63.84365         2.28316
C         55.14866        65.67476         0.86290
C         53.98204        65.20135         1.61769
C         55.10176        66.87285         0.17915
C         53.88833        67.65411         0.18034
C         55.09580        69.67156        -0.62055
C         53.89436        69.03743        -0.18748
C         55.16121        71.10368        -0.71546
C         53.97241        71.80759        -0.35934
C         55.14185        73.90745        -1.98344
C         53.90923        73.66508        -1.36397
C         56.04719        51.08921        -1.17063
C         57.35293        53.11810        -0.64977
C         56.11483        52.48116        -0.84792
C         57.43073        54.46375        -0.21229
C         56.21027        55.16768         0.09411
C         57.50639        57.19653         0.66588
C         56.26983        56.51801         0.48305
C         57.55622        58.52150         1.18362
C         56.37939        59.30503         1.40292
C         57.66326        61.32392         2.05321
C         56.39611        60.62600         1.86271
C         57.65749        62.84176         1.70901
C         56.35622        63.53525         1.57279
C         57.59237        65.36927         0.15830
C         56.32118        64.80673         0.80454
C         57.61226        66.77472        -0.25807
C         56.29976        67.38323        -0.52625
C         57.56339        69.53067        -1.24734
C         56.25607        68.85218        -0.96937
C         57.55634        71.03538        -1.41458
C         56.31415        71.80830        -1.17171
C         57.58788        73.79513        -1.85897
C         56.33426        73.18859        -1.60444
C         58.66255        55.14308        -0.07472
C         59.98546        57.14778         0.46138
C         58.73638        56.48175         0.36815
C         60.09335        58.46541         0.95200
C         58.87259        59.09447         1.50180
C         60.17852        61.31807         1.58902
C         58.95020        60.57483         1.88980
C         60.11587        62.70774         1.32681
C         58.89446        63.40636         1.19074
C         60.14455        65.44645         0.23191
C         58.88013        64.65692         0.40640
C         60.09425        66.88168        -0.14100
C         58.83352        67.50314        -0.41342
C         60.03847        69.58119        -1.00670
C         58.82599        68.86771        -0.86344
C         60.04359        71.01209        -1.31233
C         58.85373        71.73213        -1.38880
C         60.05507        73.84468        -1.69406
C         58.83534        73.15232        -1.63031
C         61.29902        59.17640         0.98872
C         62.58496        61.25988         1.01100
C         61.38581        60.58139         1.27830
C         62.72012        62.69715         1.19786
C         61.37938        63.47905         1.30261
C         62.65844        65.62984         0.59477
C         61.36919        64.92483         0.90730
C         62.60618        66.90272        -0.17597
C         61.31369        67.55816        -0.38306
C         62.50950        69.56016        -1.28988
C         61.27236        68.90529        -0.82454
C         62.52374        71.03569        -1.39102
C         61.30022        71.72091        -1.41615
C         62.51156        73.85466        -1.58059
C         61.28958        73.15877        -1.56171
C         63.89816        63.45011         0.74853
C         65.09825        65.52779         0.22132
C         63.90593        64.82070         0.55016
C         65.07102        66.86260        -0.20651
C         63.79777        67.49757        -0.53455
C         65.12739        69.55693        -1.44896
C         63.80971        68.80090        -1.24115
C         65.00889        71.06184        -1.25187
C         63.76632        71.73750        -1.38614
C         64.96159        73.89936        -1.39149
C         63.74610        73.18068        -1.45074
C         66.26679        67.61700        -0.29198
C         67.45139        69.73363        -0.55763
C         66.29629        68.96165        -0.69305
C         67.45158        71.13247        -0.82988
C         66.19896        71.79941        -1.11058
C         67.41069        73.95594        -1.08999
C         66.18166        73.23608        -1.19624
C         68.62656        71.89195        -0.71254
C         68.60249        73.29022        -0.86480
O         40.16069        58.04141         3.85809
O         35.81390        68.91694        -1.33687
O         42.64596        66.64099         2.99223
O         26.78443        67.68059         1.32065
O         54.88799        58.36412        -0.35680
O         33.59219        70.10929         1.47182
O         47.71356        70.42109        -1.15195
O         40.16512        45.80843        -1.83353
O         62.16962        63.20832         2.46921
O         48.14843        39.64250        -0.66686
O         39.37393        47.86161         2.13859
O         50.10340        65.97245        -0.40893
O         54.29440        65.07696         3.05785
O         43.88584        39.35426        -4.04718
O         54.06148        73.15161        -0.04073
O         52.04625        49.55448        -2.48166
O         35.95882        60.45631        -0.24232
O         49.85943        62.86263         0.68354
O         57.75468        62.32308         3.09245
O         50.38188        70.90592         1.50792
O         32.98774        61.94189        -0.75346
O         36.60035        64.37354        -0.32401
O         41.82245        49.98220         2.97842
O         51.02661        46.14285         0.86010
O         53.57063        52.18719        -2.36511
O         61.97647        65.79079         1.90056
O         42.94467        71.29701         1.50076
O         42.17862        52.66000         0.51075
O         48.22395        42.46197        -2.93908
O         33.07750        57.07820         3.28716
O         26.86108        70.26990        -3.54408
O         37.80630        49.65118        -0.59260
O         45.32035        66.66741         2.92238
O         26.67844        70.14420         0.32333
O         51.32293        53.41984        -1.53439
O         42.17539        54.25268         3.76512
O         56.00606        67.76636        -1.91191
O         30.66029        69.94188         1.49134
O         37.56843        58.09338         3.80053
O         32.40093        66.51259         2.18061
O         49.42264        60.95553         3.71720
O         57.52271        70.12292        -2.58881
O         31.41147        59.49394        -0.61439
O         49.86345        50.76827        -1.73529
O         59.69169        64.54923        -0.83511
O         31.09521        65.33259        -0.87608
O         44.02352        51.26514         3.29262
O         41.72149        40.74658        -3.49870
O         35.58584        59.51675         3.14539
O         46.32876        73.31027         0.19713
O         45.72753        43.58767         0.64464
O         38.10601        63.05561         2.67551
O         63.02837        68.82484        -2.48416
O         52.74555        62.22277         3.51076
O         35.55254        66.07788         2.82597
O         51.54260        55.29803         2.45361
O         56.67596        64.52478        -0.61186
O         45.21905        48.77367         2.80234
O         59.06112        59.51874         2.89474
O         29.54888        62.98700        -0.96088
O         43.64097        43.03049        -3.10566
H         44.45419        43.46225        -3.43987
O         38.69144        54.50343         4.10813
H         39.52071        54.73419         4.58123
O         38.24150        61.24246        -0.48224
H         39.08386        61.72575        -0.61127
O         48.86368        73.02472         1.27497
H         49.29562        72.50013         1.98644
O         54.85991        61.55363         0.30457
H         54.79031        60.65734        -0.09484
O         33.71215        64.44631         2.85420
H         34.30060        65.06993         3.38069
O         35.07616        53.24179        -0.20763
H         35.09934        52.38343        -0.68331
O         47.13397        50.54366         3.10847
H         46.39999        50.70524         3.74189
O         47.07734        47.17916         2.31763
H         46.76079        47.77718         3.03761
O         46.40378        60.85187         4.00901
H         47.31871        60.68808         4.32974
O         49.34269        38.32875        -3.94394
H         48.66246        38.79571        -4.47174
O         65.49388        69.39212        -2.85055
H         64.64603        69.32464        -3.35111
O         45.29586        62.54311        -0.01162
H         46.14780        62.08773        -0.18805
O         43.94741        70.97253        -1.93781
H         44.77585        71.13923        -2.43609
O         48.72778        59.67490         0.28451
H         48.73238        58.84006        -0.23023
O         42.88778        41.11460        -0.08786
H         43.09406        41.81274         0.56953
O         25.35053        62.74677         0.54039
H         25.49216        62.54217        -0.40652
O         41.13973        69.81473         2.55682
H         41.63634        70.65609         2.69789
O         29.97335        72.34094         0.71004
H         30.31988        71.87992         1.50991
O         33.22997        57.72383        -0.25391
H         32.93883        58.35147        -0.95908
H         23.58978        73.84444        -5.14100
H         25.89596        74.12872        -4.31630
H         28.22085        74.45691        -3.44950
H         30.55628        74.64439        -2.78118
H         32.93857        74.72998        -2.42606
H         35.40068        74.76310        -2.21449
H         37.86269        74.75035        -2.10592
H         40.31527        74.73642        -2.01873
H         42.72535        74.76115        -1.94196
H         45.08897        74.37280        -2.71974
H         47.87102        74.31389        -2.65156
H         50.14918        74.40537        -2.42305
H         52.39319        74.44151        -2.68793
H         55.21964        74.62861        -2.81015
H         57.59984        74.84593        -2.18420
H         60.05865        74.93212        -1.85849
H         62.50617        74.95085        -1.67267
H         64.94306        74.99635        -1.47099
H         67.39507        75.05133        -1.18314
H         22.33815        68.51173        -2.74356
H         21.27750        70.35360        -4.05198
H         21.46974        72.54709        -5.21138
H         24.42057        64.87525         0.01214
H         23.38810        66.68523        -1.40999
H         26.89471        60.82852         1.24768
H         26.36311        63.54457         2.13734
H         29.25606        56.47110         1.60113
H         28.08332        58.69895         1.41523
H         31.79327        52.23774         1.87884
H         30.54632        54.31411         1.81336
H         34.21455        48.16630         0.65925
H         33.04062        50.16136         1.38881
H         36.71631        44.03674        -0.70720
H         35.48049        46.02853         0.03770
H         39.16092        39.89163        -1.68745
H         37.94813        41.94378        -1.16040
H         41.57674        35.71987        -2.82473
H         40.40391        37.80282        -2.43524
H         44.91012        32.29643        -2.94890
H         42.78025        33.57787        -2.98280
H         47.10032        33.46952        -2.79997
H         48.39773        35.58873        -2.69006
H         49.61163        37.55873        -2.05539
H         51.08141        39.85037        -2.07498
H         52.32855        41.98906        -1.64643
H         53.47531        44.12942        -1.51709
H         54.67814        46.29824        -1.43929
H         55.80629        48.44521        -1.33065
H         56.99142        50.52573        -1.21772
H         58.28162        52.56253        -0.84658
H         59.59443        54.61385        -0.32369
H         60.89423        56.62174         0.13232
H         62.21709        58.66878         0.65548
H         63.42665        60.70651         0.56899
H         64.82710        62.88727         0.57034
H         66.06820        65.02368         0.34283
H         67.19749        67.15659         0.07480
H         68.36598        69.27152        -0.15439
H         69.57682        71.38354        -0.49498
H         69.53975        73.85794        -0.78145
