         349
 CSIRO Nanostructure Databank - Neutral Graphene Oxide Data Set
C          1.21007         3.29768         0.39484
C          0.04523         3.99093         0.44497
C          1.13002         6.18863         0.66248
C         -0.00796         5.43229         0.47051
C          1.13252         7.63161         0.83901
C         -0.03178         8.40020         0.87138
C          1.10540        10.59416         0.72401
C         -0.04809         9.81336         0.84790
C          1.11898        12.03690         0.74406
C         -0.08182        12.78521         1.03930
C          1.19416        14.89539         1.19999
C         -0.05772        14.12395         1.26587
C          1.18925        16.41422         1.14156
C         -0.09347        17.16023         1.09467
C          1.13716        19.31297         0.90275
C         -0.12874        18.48935         0.92751
C          1.02689        20.64756         0.16650
C         -0.21441        21.20959        -0.15003
C          0.91557        23.25547        -0.85642
C         -0.24828        22.47117        -0.72140
C          1.39241        25.35388        -2.09238
C          0.86417        25.92653        -3.24723
C          2.32146        27.86288        -3.01628
C          1.32631        27.16267        -3.72134
C          2.62444        29.23103        -3.35608
C          3.74187         3.25582         0.75628
C          2.51701         4.02247         0.20150
C          3.71986         6.20711         0.75669
C          2.41994         5.44312         0.76491
C          3.67396         7.65042         0.61357
C          2.42096         8.34632         0.90125
C          3.60000        10.56260         0.19930
C          2.40295         9.87424         0.77595
C          3.54944        12.04899         0.16698
C          2.32584        12.77490         0.57976
C          3.54624        14.94089         0.31923
C          2.39016        14.18332         0.70303
C          3.56149        16.34798         0.22751
C          2.37044        17.12066         0.56870
C          3.38148        19.24312        -0.30098
C          2.31285        18.48118         0.42859
C          3.47000        20.69191         0.20333
C          2.19192        21.42324        -0.03113
C          3.40733        23.64974         0.01597
C          2.18987        22.78619        -0.44393
C          3.53350        25.12210        -0.49722
C          2.54956        25.93406        -1.40271
C          4.06455        27.92229        -1.28685
C          2.99475        27.24692        -1.92375
C          4.32455        29.31426        -1.61209
C          3.53012        29.94729        -2.63441
C          6.26184         3.41136         0.53749
C          5.04231         4.01873         0.52949
C          6.24536         6.27599         0.34196
C          4.96651         5.48515         0.34805
C          6.19259         7.70814         0.83395
C          4.92581         8.37153         0.34177
C          6.19957        10.59399         0.41417
C          4.93078         9.85701         0.18177
C          6.14316        12.07106         0.47476
C          4.83561        12.77752         0.36499
C          6.09811        14.94389        -0.13500
C          4.78441        14.21275        -0.03554
C          6.03261        16.41679        -0.10733
C          4.78244        17.04620        -0.12184
C          5.99728        19.27894        -0.37436
C          4.71466        18.50671        -0.39213
C          6.08955        20.69626         0.16513
C          4.75710        21.44580         0.21232
C          5.95178        23.57446        -0.07939
C          4.73956        22.90012        -0.05449
C          5.99485        25.01694        -0.04653
C          4.85619        25.77965        -0.30726
C          6.18058        27.88252        -0.02881
C          4.97577        27.20893        -0.46922
C          6.32502        29.33126        -0.18681
C          5.35310        30.00605        -0.99466
C          8.75810         3.48497         0.54050
C          7.52448         4.14405         0.48993
C          8.70918         6.32652         0.57489
C          7.52079         5.56579         0.48146
C          8.65469         7.78898         0.58311
C          7.46415         8.47460         0.54978
C          8.66420        10.69105         0.49042
C          7.40854         9.93230         0.50826
C          8.62677        12.10653         0.42340
C          7.40339        12.84477         0.31482
C          8.55643        15.09362         0.49843
C          7.36376        14.22464         0.14731
C          8.55319        16.44009        -0.19031
C          7.27940        17.14816        -0.22445
C          8.45808        19.27725        -0.70173
C          7.26452        18.53037        -0.28797
C          8.49420        20.76656        -0.58569
C          7.25084        21.48916        -0.40010
C          8.48028        23.63008        -0.35731
C          7.22230        22.86089        -0.25724
C          8.54296        24.99150         0.19486
C          7.22548        25.65412         0.55028
C          8.49094        27.78562         0.85997
C          7.26789        27.14333         0.38481
C          8.57275        29.31182         0.89532
C          7.45212        30.00337         0.26322
C         11.21774         3.52890         0.45253
C          9.98215         4.21307         0.52941
C         11.19421         6.39656         0.48283
C          9.95138         5.64986         0.55469
C         11.17705         7.80537         0.49126
C          9.92946         8.54259         0.88264
C         11.13044        10.70597         0.22904
C          9.90249        10.00250         0.47907
C         11.13427        12.11998         0.08791
C          9.90069        12.84109         0.43746
C         11.08329        15.00946        -0.15701
C          9.88989        14.34388         0.40702
C         11.01830        16.38093        -0.46786
C          9.74084        17.07713        -0.49042
C         11.01662        19.28398        -1.09927
C          9.71664        18.49061        -0.93949
C         10.95240        20.58621        -0.26632
C          9.71288        21.40494        -0.53937
C         11.03536        23.49711         0.10075
C          9.80904        22.86869        -0.46153
C         11.01406        24.86216         0.50182
C          9.74517        25.59193         0.47523
C         10.91987        27.67537         1.36143
C          9.80129        27.09724         0.53655
C         11.02882        29.16458         1.27731
C          9.92794        29.91078         0.94799
C         13.66122         3.55258         0.06650
C         12.45251         4.23070         0.32508
C         13.66745         6.38863         0.11456
C         12.41063         5.66749         0.37979
C         13.65371         7.87211         0.04315
C         12.45421         8.59013         0.60854
C         13.57271        10.72103        -0.13355
C         12.38297        10.02749         0.15195
C         13.55980        12.13652        -0.34427
C         12.32393        12.83948        -0.17338
C         13.49096        14.96452        -0.67770
C         12.29130        14.27593        -0.31645
C         13.44957        16.36513        -0.85735
C         12.23304        17.07188        -0.76926
C         13.46917        19.17667        -0.50349
C         12.26398        18.50808        -0.76256
C         13.43768        20.54400         0.13847
C         12.27126        21.38617        -0.41737
C         13.44012        23.37938         0.59702
C         12.22123        22.76174         0.21104
C         13.43663        24.74228         1.02783
C         12.20086        25.45645         1.00370
C         13.42013        27.53893         1.89969
C         12.14319        26.84138         1.53686
C         13.48519        29.00686         1.63162
C         12.34881        29.73847         1.36413
C         16.21756         3.54198        -0.10856
C         14.92417         4.30165        -0.28054
C         16.19819         6.43984         0.37045
C         14.92246         5.62420         0.49559
C         16.19624         7.91557         0.06596
C         14.91120         8.64102        -0.01444
C         16.04741        10.72221        -0.56665
C         14.85339        10.01168        -0.19909
C         16.02430        12.11170        -0.79635
C         14.76991        12.84948        -0.64912
C         15.94655        15.01088        -1.07687
C         14.73422        14.24821        -0.81872
C         15.94251        16.37828        -1.14696
C         14.66084        17.14061        -1.29191
C         15.92996        19.23233        -0.58871
C         14.70636        18.52428        -0.69269
C         15.92743        20.63327        -0.21210
C         14.72465        21.30847         0.04623
C         15.92350        23.35091         0.64776
C         14.69417        22.66672         0.43892
C         15.89634        24.67245         1.22535
C         14.69680        25.35504         1.43143
C         16.00506        27.56538         2.16273
C         14.69720        26.75020         1.98266
C         15.96445        28.95727         1.55974
C         14.77229        29.63083         1.46607
C         18.68173         3.53160        -0.18394
C         17.41993         4.20254        -0.01039
C         18.71340         6.42895        -0.23010
C         17.47574         5.67084         0.21154
C         18.57381         7.83397        -0.70954
C         17.39530         8.53011        -0.55709
C         18.48355        10.70321        -1.41133
C         17.22510         9.93667        -0.99740
C         18.48514        12.15741        -1.17642
C         17.23841        12.80947        -1.07113
C         18.44725        14.98705        -0.86611
C         17.22495        14.27398        -1.40617
C         18.43515        16.49252        -0.93836
C         17.18858        17.17946        -1.46030
C         18.36913        19.33372        -0.91393
C         17.16350        18.61573        -0.94791
C         18.38632        20.69256        -0.47933
C         17.15933        21.35450        -0.13950
C         18.40913        23.41320         0.42930
C         17.14972        22.70450         0.31015
C         18.44802        24.68228         0.98603
C         17.21035        25.30616         1.49796
C         18.43613        27.51193         1.17248
C         17.26107        26.77394         1.80865
C         18.42603        28.99615         1.45458
C         17.21978        29.65538         1.46086
C         19.84635         4.22234        -0.47429
C         21.06916         6.32995        -0.98458
C         19.88974         5.62922        -0.62662
C         21.04740         7.68215        -1.23159
C         19.78659         8.42430        -1.33575
C         20.99723        10.76502        -1.46925
C         19.77882         9.97083        -1.58324
C         20.95042        12.11290        -1.22981
C         19.73112        12.85673        -1.11240
C         20.89395        15.06106        -0.79991
C         19.74543        14.28970        -0.91542
C         20.87430        16.48781        -0.87144
C         19.71352        17.20657        -1.03341
C         20.88741        19.43905        -1.09704
C         19.64227        18.67470        -1.44613
C         20.86338        20.71234        -0.66497
C         19.62233        21.42038        -0.39524
C         20.83623        23.57029        -0.04295
C         19.63004        22.76386        -0.00037
C         20.90440        24.77945         0.54951
C         19.77488        25.29877         1.39862
C         20.87103        27.54917         1.68314
C         19.74879        26.82235         1.43977
C         20.84942        28.99166         1.71969
C         19.68076        29.68591         1.59250
O          2.45014        25.91923         0.07060
O          8.82962        18.77161        -2.07118
O         16.34063         7.40479         1.46492
O          3.12139         5.67224         2.02195
O          3.36493        11.27010        -1.06013
O         18.44346         6.14084         1.19443
O         17.51587        10.24831        -2.40360
O          9.21630        23.53504        -1.62602
O          0.58918        24.41375        -1.53233
O          4.06889        21.01513         1.48239
O         18.21481        15.78519         0.33021
O         13.55415         7.07197        -1.19373
O         19.68399         9.01799        -2.67599
O         17.51424        25.82751         2.88295
O          5.35708        18.96849        -1.65688
O         13.88321        26.98993         3.17606
O          5.52829         5.99904        -0.90328
O         11.13877        27.01738         2.62454
O          1.44819        15.73251         2.40957
O          8.32000        28.50146         2.10869
O          5.39095        12.54708         1.69583
O          5.36867        14.44586        -1.34522
O         10.15322        13.66202         1.68348
O          5.03019         8.96478        -0.99699
O          2.62678         9.26384         2.06895
O         18.17561        27.37093        -0.26951
H         18.86423        27.88074        -0.74682
O          6.52970        20.48773         1.54423
H          5.74435        20.62799         2.12674
O         14.86292         4.65412        -1.70102
H         14.63756         3.84713        -2.20880
O          9.96805         8.55619         2.36885
H         10.90775         8.73128         2.62528
O         11.13843        19.59559        -2.50918
H         10.22359        19.53902        -2.88797
O          1.40869        19.67606         2.29297
H          1.50432        18.84612         2.80706
O         12.54818        21.67447        -1.80241
H         12.21712        20.93134        -2.36667
O         12.73097         8.67208         2.06889
H         13.49884         9.27248         2.19205
O          3.16484        23.81977         1.43500
H          2.46806        24.50597         1.53451
O          2.86249        19.37557        -1.66108
H          3.62707        19.26586        -2.27447
O          7.09815        25.41455         2.00007
H          6.37966        25.98931         2.34033
O         20.03960        24.84052         2.76216
H         19.25208        25.10585         3.29537
O         17.36116        14.32825        -2.86575
H         16.81121        13.61419        -3.25158
O          3.57184         2.99018         2.15049
H          3.46354         3.85949         2.60348
O          8.34235        15.43773         1.90369
H          8.78941        14.72872         2.42772
O         19.57100        18.69527        -2.90264
H         18.76033        18.18566        -3.16709
O          2.74772         4.14010        -1.22883
H          1.92541         4.46896        -1.64815
O         10.78485        20.12557         1.10644
H         10.62915        20.90396         1.68300
O         16.14135        27.86594         3.57303
H         16.20704        27.00891         4.04840
O         17.28004        17.24541        -2.91676
H         16.36913        17.46962        -3.23688
O         14.52391        17.35919        -2.76763
H         14.17841        16.52505        -3.15285
O         14.79117         5.27852         1.89072
H         15.18319         6.01215         2.41577
O         10.11472        27.48992        -0.84524
H          9.61445        26.90906        -1.45735
O         13.29399        20.31784         1.56892
H         12.52022        19.72265         1.70643
O          6.07064         7.66709         2.28462
H          6.96615         7.58082         2.67532
H          1.21084         2.19820         0.40172
H         -0.91018         3.44773         0.49181
H         -0.99399         5.91295         0.41008
H         -1.00516         7.88907         0.87963
H         -1.03273        10.30059         0.86594
H         -1.03676        12.24972         1.12970
H         -0.98262        14.63895         1.55971
H         -1.03226        16.60164         1.22138
H         -1.10240        18.99951         0.94725
H         -1.15465        20.66525         0.00039
H         -1.20006        22.90835        -1.05036
H         -0.00640        25.44906        -3.71551
H          0.84589        27.62715        -4.59286
H          2.06461        29.69893        -4.17842
H          3.80377         2.26594         0.23742
H          3.72446        31.00352        -2.87012
H          6.32002         2.31762         0.64982
H          5.49848        31.07404        -1.21572
H          8.79179         2.38547         0.55498
H          7.58655        31.05919        -0.01903
H         11.21779         2.42946         0.40915
H         10.02828        30.99519         0.78508
H         13.64865         2.45463        -0.01897
H         12.45356        30.81359         1.14849
H         16.21903         2.45686        -0.30120
H         14.78260        30.69307         1.17394
H         18.69160         2.43195        -0.18377
H         17.20324        30.75702         1.47498
H         20.76897         3.65380        -0.66467
H         22.01206         5.77246        -1.08544
H         21.96305         8.17945        -1.58063
H         21.96834        10.27433        -1.62201
H         21.90280        12.65692        -1.16503
H         21.88084        14.57801        -0.76672
H         21.84824        16.99714        -0.89452
H         21.85562        18.96037        -1.30236
H         21.81426        21.22908        -0.47394
H         21.70359        23.19893        -0.60692
H         21.82975        25.37094         0.48817
H         21.82967        27.04086         1.86219
H         21.79669        29.52623         1.87409
H         19.67059        30.78332         1.66626
