         661
 CSIRO Nanostructure Databank - Neutral Graphene Oxide Data Set
C          5.90762        31.85047         0.46710
C          5.91660        33.20919         0.35611
C          8.28318        27.52861         0.63996
C          8.30965        28.93217         0.55779
C          7.10636        29.70116         0.56388
C          8.38264        31.78754         0.27622
C          7.13022        31.08519         0.43974
C          8.38901        33.19911         0.16245
C          7.15092        33.93810         0.20639
C          8.37345        36.05652        -0.02722
C          7.16055        35.32761         0.11900
C          8.38163        37.45772        -0.03689
C         10.74568        23.19330         0.54840
C         10.71361        24.62564         0.60413
C          9.50209        25.34761         0.67664
C         10.72795        27.48132         0.62491
C          9.48190        26.76881         0.65239
C         10.75697        28.88803         0.42596
C          9.56537        29.62482         0.40518
C         10.84518        31.74434         0.05690
C          9.60689        31.05666         0.23055
C         10.85604        33.17265        -0.02335
C          9.62433        33.89888         0.01997
C         10.84221        36.00898        -0.24927
C          9.62455        35.32143        -0.09270
C         10.84315        37.48775        -0.58470
C          9.57941        38.20788        -0.17077
C         10.82439        40.34257        -0.02804
C          9.59819        39.58495        -0.03232
C         10.82202        41.73777         0.03232
C         13.24538        18.92356         0.10484
C         13.20474        20.31461         0.29426
C         11.97504        21.03524         0.40558
C         13.21663        23.17090         0.27734
C         11.93427        22.44351         0.45403
C         13.22115        24.66501         0.38828
C         11.94910        25.36897         0.64939
C         13.16285        27.57797         1.11030
C         11.94933        26.75082         0.73709
C         13.29452        28.75146         0.14896
C         12.02264        29.54363         0.01310
C         13.31066        31.69573        -0.11336
C         12.09058        31.02104        -0.05734
C         13.35054        33.14724        -0.11183
C         12.08961        33.88285        -0.13381
C         13.31552        36.06094        -0.36571
C         12.05688        35.29276        -0.27429
C         13.30064        37.51307        -0.06527
C         12.09652        38.20965        -0.13366
C         13.29801        40.34869         0.15186
C         12.07338        39.62428         0.00564
C         13.26686        41.75859         0.16623
C         12.03706        42.48818         0.10285
C         13.20199        44.69454         0.32291
C         12.02199        43.90479         0.16323
C         13.19428        46.06792         0.47039
C         15.75271        14.71459        -0.77334
C         15.72323        16.11056        -0.51097
C         14.49860        16.82462        -0.39543
C         15.72150        18.88325         0.06674
C         14.47716        18.19712        -0.07083
C         15.74754        20.29672         0.59402
C         14.45672        21.04784         0.37881
C         15.73416        23.14240         0.60949
C         14.48733        22.42074         0.40950
C         15.62225        24.50729         1.25349
C         14.53918        25.40469         0.58074
C         15.75747        27.46952         1.00220
C         14.46189        26.75110         1.35112
C         15.81644        28.80286         0.59304
C         14.60300        29.46569         0.06706
C         15.89359        31.67416         0.09536
C         14.60681        30.96201        -0.14264
C         15.88134        33.11459        -0.36646
C         14.56637        33.82095        -0.06489
C         15.71285        36.02343         0.47640
C         14.59413        35.29590        -0.18388
C         15.71898        37.48100         0.44453
C         14.54564        38.20046         0.17667
C         15.76426        40.34800         0.50881
C         14.55115        39.64275         0.24798
C         15.77683        41.77704         0.55051
C         14.54011        42.49136         0.17068
C         15.73064        44.69913         0.68293
C         14.50553        43.98666         0.25943
C         15.71129        46.06403         0.69750
C         14.43205        46.85319         0.83348
C         15.72207        48.83185        -0.07666
C         14.54696        48.22893         0.19916
C         15.76665        50.17065        -0.77029
C         18.36703        10.52810        -1.52127
C         18.23051        11.87965        -1.02387
C         17.01920        12.59660        -1.09337
C         18.18690        14.66529        -0.45449
C         16.96327        13.98013        -0.76649
C         18.20092        16.08280        -0.31472
C         16.96204        16.81615        -0.35115
C         18.19924        18.95132         0.03075
C         16.94590        18.22211        -0.11368
C         18.22523        20.31359         0.24421
C         16.93664        21.07566         0.03193
C         18.18358        23.14768         0.91921
C         16.94613        22.49236         0.54917
C         18.14712        24.50963         1.24157
C         16.93279        25.27157         1.22955
C         18.21373        27.35117         0.75584
C         16.94449        26.67363         1.10290
C         18.26108        28.83004         0.65350
C         17.06009        29.53536         0.52457
C         18.42845        31.64777         0.08940
C         17.05917        30.98706         0.32205
C         18.45343        33.16664         0.29146
C         17.13492        33.90416         0.06035
C         18.26396        35.97633         0.92961
C         17.02788        35.25005         0.68188
C         18.13222        37.42409         1.22033
C         17.05939        38.17218         0.45215
C         18.13678        40.33920         1.10931
C         16.98719        39.64307         0.77396
C         18.17633        41.77232         1.03871
C         16.95572        42.49437         0.79091
C         18.17570        44.62496         0.94847
C         16.97430        43.95219         0.80712
C         18.25070        46.09094         0.98224
C         16.96414        46.83575         0.79577
C         18.28562        48.89633         0.18642
C         17.03219        48.07864        -0.06211
C         18.28784        50.26504        -0.17948
C         17.05291        50.94352        -0.57101
C         18.25614        53.07269        -0.89724
C         17.05222        52.27873        -0.87338
C         18.25933        54.40067        -1.20869
C         21.22709         6.98114        -3.39454
C         21.00626         8.06488        -2.52290
C         19.76083         8.70289        -2.40597
C         20.86651        10.68069        -1.30852
C         19.60504         9.92018        -1.68971
C         20.58380        11.68682        -0.19057
C         19.38889        12.53317        -0.52259
C         20.63138        14.60555        -0.02905
C         19.39970        13.92751        -0.31252
C         20.64544        16.02445         0.02879
C         19.43229        16.74853        -0.12349
C         20.70084        18.89605         0.27131
C         19.47874        18.23820        -0.30506
C         20.68934        20.28342         0.55413
C         19.45247        21.02441         0.52623
C         20.67536        23.03322         1.22359
C         19.43579        22.39171         0.89707
C         20.67934        24.45407         1.63753
C         19.37115        25.24890         1.72115
C         20.73862        27.33263         1.06300
C         19.47021        26.58430         0.99568
C         20.71198        28.76922         0.93323
C         19.52802        29.49716         0.75386
C         20.63871        31.61016         1.35857
C         19.56740        30.94996         0.80136
C         20.51885        33.04446         1.84938
C         19.52062        33.84695         1.03541
C         20.63046        35.98864         1.62575
C         19.48197        35.27161         1.16117
C         20.60469        37.41866         1.87630
C         19.32911        38.17891         1.68202
C         20.62709        40.20119         0.78996
C         19.40793        39.69421         1.60159
C         20.66588        41.72262         0.86666
C         19.42445        42.42868         1.00349
C         20.73973        44.63053         0.80824
C         19.43351        43.88143         0.77795
C         20.72350        46.11573         0.89060
C         19.53992        46.79644         0.74694
C         20.72846        48.96741         0.45463
C         19.50177        48.23979         0.49883
C         20.71803        50.35489         0.15712
C         19.50294        50.98674        -0.16962
C         20.61409        53.24047        -0.02332
C         19.58618        52.37393        -0.75400
C         20.67858        54.60288        -0.68280
C         19.50383        55.16590        -1.25076
C         20.70618        57.34101        -1.68939
C         19.50468        56.44545        -1.80676
C         20.76433        58.45481        -2.69319
C         23.96634         4.61106        -4.46255
C         22.68330         5.25708        -4.38335
C         23.74283         6.96070        -2.95377
C         22.49144         6.36875        -3.57288
C         23.47066         7.92558        -1.82338
C         22.10895         8.49053        -1.61873
C         23.06689        10.21907        -0.13504
C         22.04227         9.79387        -0.92546
C         23.03711        11.63026         0.34938
C         21.83781        12.45760         0.07889
C         23.08697        14.57345         0.32011
C         21.85703        13.85217         0.12923
C         23.10570        15.98257         0.28276
C         21.89184        16.72467         0.18769
C         23.13323        18.84626         0.55951
C         21.90096        18.15823         0.32046
C         23.13616        20.21724         0.86028
C         21.91776        20.94521         0.87142
C         23.18126        23.07303         1.12679
C         21.90666        22.35884         1.12643
C         23.21073        24.48768         1.11983
C         21.97070        25.21409         1.45643
C         23.17365        27.35226         0.71044
C         21.92456        26.66319         1.18718
C         23.16128        28.81018         1.08108
C         21.94269        29.46514         1.16672
C         23.21946        31.57067         1.79274
C         21.86391        30.84420         1.64814
C         23.20473        33.06056         1.96460
C         21.87238        33.78739         2.05241
C         23.17388        36.00422         1.60575
C         21.90139        35.28744         1.91256
C         23.16690        37.39879         1.46207
C         21.95307        38.19050         1.73082
C         23.11202        40.21470         0.93979
C         21.92650        39.58455         1.27569
C         23.08223        41.56645         0.25787
C         21.87107        42.37269         0.69750
C         23.29819        44.53326         0.73068
C         21.99465        43.82449         0.96472
C         23.30035        46.04090         0.67940
C         22.01832        46.83000         0.85476
C         23.19670        48.94824         0.41025
C         21.99797        48.28049         0.54993
C         23.22641        50.40149         0.31365
C         21.96500        51.12360         0.16511
C         23.18712        53.28197         0.18330
C         21.94267        52.50028         0.04801
C         23.22769        54.69301        -0.33289
C         21.93007        55.37061        -0.69708
C         23.17243        56.97349        -2.11828
C         21.98666        56.54980        -1.58743
C         23.14363        57.96115        -3.25138
C         21.92344        58.83905        -3.29904
C         23.21241        60.53121        -4.52524
C         21.99974        60.04205        -4.08784
C         24.95615         4.88184        -3.56841
C         25.86089         6.41922        -1.73912
C         24.65977         5.83677        -2.43327
C         25.83624         7.64075        -1.09355
C         24.65625         8.59084        -1.17060
C         25.58594        10.20496        -0.18597
C         24.33919         9.35494         0.13250
C         25.66482        11.58099         0.51399
C         24.33442        12.34212         0.59229
C         25.64494        14.58435         0.33229
C         24.34208        13.84431         0.57950
C         25.55111        15.99524        -0.04820
C         24.36921        16.69550         0.19287
C         25.58226        18.82246         0.36542
C         24.37672        18.13127         0.35142
C         25.65295        20.22795         0.69199
C         24.42762        20.88803         1.28485
C         25.61856        23.07798         0.89755
C         24.41185        22.37842         1.05925
C         25.61631        24.48069         0.79457
C         24.41806        25.19272         0.95781
C         25.62601        27.43747         0.64055
C         24.44667        26.68519         1.21883
C         25.58759        28.79994         0.57797
C         24.39658        29.52883         1.03703
C         25.53695        31.71233         0.73426
C         24.41075        30.90089         1.25741
C         25.65889        33.11432         1.17875
C         24.46112        33.82739         1.68952
C         25.58388        35.93121         1.08189
C         24.40749        35.28618         1.44100
C         25.58034        37.37107         0.82415
C         24.35651        38.12168         1.14973
C         25.61612        40.27216         0.99900
C         24.34763        39.50874         0.99880
C         25.59443        41.70765         0.62528
C         24.40099        42.33343         0.32720
C         25.65965        44.50044        -0.36416
C         24.28851        43.77915        -0.15163
C         25.66598        46.02511        -0.09694
C         24.50320        46.72067         0.13571
C         25.73697        48.96129         0.02607
C         24.45170        48.20250         0.09507
C         25.68417        50.31655         0.75230
C         24.43431        51.07147         0.35865
C         25.75421        53.18310        -0.13526
C         24.49285        52.53998         0.32598
C         25.70554        54.47166        -0.77345
C         24.47559        55.17489        -0.97431
C         25.64674        56.84923        -2.34757
C         24.43097        56.31113        -1.80505
C         25.63432        58.04016        -3.11474
C         24.44266        58.67508        -3.49459
C         24.42897        59.88620        -4.19633
C         26.98059         8.16792        -0.44301
C         28.12027        10.22100         0.19030
C         26.94548         9.53140        -0.04911
C         28.20014        11.70817         0.43497
C         26.87850        12.35007        -0.05255
C         28.07810        14.50778        -0.16893
C         26.91264        13.85541         0.10136
C         28.09135        15.93716        -0.65294
C         26.78150        16.68768        -0.43298
C         28.09240        18.75435         0.38818
C         26.80409        18.15614        -0.10640
C         28.05728        20.23477         0.11662
C         26.81927        20.92972         0.54021
C         28.16806        23.08578         0.55554
C         26.93248        22.34545         1.04632
C         28.15884        24.52308         0.44631
C         26.84960        25.19482         0.38686
C         28.12218        27.39338         0.19418
C         26.82899        26.69035         0.21994
C         28.07829        28.84088        -0.05613
C         26.74650        29.55076         0.01625
C         28.03358        31.79574        -0.05393
C         26.71080        31.05605         0.05405
C         28.07990        33.16234         0.54133
C         26.83218        33.78965         1.05594
C         28.07240        35.89596         1.04907
C         26.85984        35.24549         1.09627
C         28.21097        37.33451         0.57139
C         26.88125        38.08341         0.63070
C         28.20726        40.25105         0.75671
C         26.92480        39.53734         0.97780
C         28.10512        41.66276         0.51921
C         26.88392        42.35958         0.48969
C         28.08129        44.52192        -0.07065
C         26.82644        43.87225         0.46267
C         28.13091        45.99867         0.01952
C         26.96733        46.71460        -0.09493
C         28.16600        48.79794         0.78370
C         27.07485        48.23922        -0.16752
C         28.26552        50.32601         0.59791
C         26.97836        51.11552         0.58370
C         28.19700        53.02099        -0.47356
C         26.95196        52.46389        -0.04237
C         28.25356        54.46567        -0.90554
C         26.91273        55.05082        -1.27556
C         26.87569        56.21339        -2.02533
C         29.38746        12.42233        -0.19291
C         30.56088        14.57604        -0.50823
C         29.35687        13.79261        -0.32917
C         30.59671        15.96926        -0.39719
C         29.34852        16.70601        -0.28006
C         30.60243        18.80553         0.07244
C         29.35709        18.06036        -0.05079
C         30.60274        20.17669         0.25849
C         29.35926        20.94823         0.14025
C         30.61017        23.08429         0.16663
C         29.35988        22.40546         0.35432
C         30.56278        24.52243        -0.26170
C         29.31704        25.24601         0.18436
C         30.57283        27.41287        -0.06299
C         29.31519        26.69330         0.10938
C         30.53298        28.86761        -0.13417
C         29.35528        29.57193        -0.06673
C         30.59809        31.76206         0.18473
C         29.35127        31.06063        -0.35796
C         30.62133        33.10536         0.63699
C         29.33869        33.62363         1.25770
C         30.55858        35.91969         1.27384
C         29.29440        35.15421         1.55516
C         30.41787        37.27907         1.61899
C         29.34751        38.11579         1.21591
C         30.69804        40.33991         1.11866
C         29.41022        39.53955         1.03907
C         30.69164        41.64734         0.36715
C         29.37272        42.31536         0.08905
C         30.62285        44.51544        -0.35915
C         29.34465        43.77764        -0.24183
C         30.72069        45.89456        -0.23698
C         29.47647        46.61403         0.20564
C         30.71107        48.81189         0.08883
C         29.50776        48.07680         0.53659
C         30.62772        50.19848        -0.20486
C         29.45381        50.92825        -0.05154
C         29.37308        52.28559        -0.47194
C         31.82764        16.70955        -0.31425
C         33.08030        18.85175        -0.05391
C         31.86002        18.08309        -0.07786
C         33.10383        20.22168         0.17742
C         31.85143        20.93436         0.62970
C         33.05648        23.13134         0.20378
C         31.81779        22.40579         0.24944
C         33.05262        24.57019         0.09751
C         31.83839        25.28169        -0.03609
C         33.07810        27.42922        -0.43551
C         31.78631        26.69995        -0.12496
C         33.01250        28.87423         0.08847
C         31.80410        29.62895        -0.47583
C         33.02580        31.76930         0.07560
C         31.80517        31.07210        -0.00145
C         33.03469        33.15030         0.34964
C         31.84285        33.81201         0.73077
C         33.18649        36.06367         0.96101
C         31.88121        35.24956         1.18693
C         33.25014        37.56312         0.89883
C         32.31537        38.34831         1.53228
C         33.36623        40.50008         0.87551
C         32.11532        39.77977         1.31353
C         33.30634        41.92915         0.39126
C         31.93655        42.46536         0.16268
C         33.68925        44.82268        -0.37451
C         31.77412        43.65879        -0.50100
C         33.29597        46.14637        -0.06786
C         31.97841        46.66225        -0.16263
C         31.88419        48.09144        -0.10399
C         34.29647        21.00463         0.18200
C         35.60202        23.10746         0.47808
C         34.28076        22.39643         0.28488
C         35.53818        24.61715         0.39931
C         34.30282        25.30328         0.19707
C         35.49893        27.45186         0.21071
C         34.30953        26.71349         0.08201
C         35.50074        28.90611         0.07626
C         34.31674        29.60017        -0.09580
C         35.55279        31.77800         0.04266
C         34.29177        31.07618        -0.39751
C         35.55728        33.15686         0.12296
C         34.26868        33.92127        -0.06007
C         35.54593        36.02277         0.14774
C         34.36177        35.35952         0.38250
C         35.55449        37.49252        -0.21701
C         34.39564        38.27140         0.34798
C         35.72868        40.34222         0.07581
C         34.49778        39.65092         0.42414
C         35.74264        41.76813        -0.04174
C         34.60751        42.57169        -0.03977
C         34.75255        44.00964         0.00727
C         36.71946        25.33663         0.49156
C         37.95023        27.48330         0.46054
C         36.73890        26.76076         0.40896
C         37.98352        28.89470         0.34016
C         36.76091        29.61580         0.15725
C         38.01014        31.73707         0.25857
C         36.77585        31.03378         0.14828
C         38.02231        33.15662         0.21624
C         36.79473        33.87852         0.16049
C         38.03905        35.99268         0.00989
C         36.79458        35.29218         0.04591
C         38.05182        37.42589        -0.03802
C         36.88796        38.17960        -0.03692
C         36.90795        39.59866        -0.04976
C         39.21179        29.61137         0.41220
C         40.47730        31.75121         0.38760
C         39.24277        31.00687         0.35390
C         40.48808        33.11522         0.30033
C         39.26469        33.86974         0.20314
C         39.25177        35.26649         0.09127
O         20.13316        44.24352        -0.48543
O         22.96863        44.04837         2.05369
O         24.09693        33.43862         3.06396
O         26.08095        37.77694        -0.55140
O         31.37149        40.43226         2.39352
O         32.83653        35.49745         2.28031
O         18.28753        37.76819         2.64129
O         27.22893        29.08682        -1.27430
O         26.63307        25.80885        -0.94750
O         17.56148        46.80157         2.11985
O         12.59623        28.73641        -1.10738
O         14.71662        43.33253        -1.04614
O         33.60967        41.58791         1.81551
O         24.96167        48.82231        -1.19279
O         14.78808        30.02976        -1.26749
O         22.92183        46.57763         1.99271
O         23.54261        11.83661         1.72770
O         12.80864        28.20860         2.33818
O         18.15056        33.89551        -0.96567
O         25.11776        14.37315         1.70713
O         30.03210        41.49814        -0.94651
O         28.46707        44.04104        -1.41371
O         28.62812        20.64409        -1.15398
O         23.02761        57.06789        -4.51067
O         25.64420        31.60924        -0.75971
O         21.84663        34.61248         3.24905
O         20.64635        39.75501        -0.53326
O         25.21752         9.92931        -1.66138
O         27.83066        51.07379         1.77622
O         14.20710        35.76635        -1.52324
O         16.03890        35.38753         1.76309
O         26.33722        39.93337         2.26248
O         21.51261        24.76979         2.80784
O         23.84701        53.17332         1.49497
O         29.74121        47.09821         1.59910
O         28.02131        33.00399        -0.90558
O         21.35739        37.88648         3.03379
O         31.42707        37.80409         2.43783
O         18.92207        26.62745        -0.35414
O         22.60785         7.38434        -0.77256
O         22.54259        30.97359         2.93695
O         22.58874        55.61499         0.62537
O         26.67154        17.71739        -1.48689
O         13.18385        24.01826        -0.94301
O         32.81973        44.15794        -1.25725
O         15.02723        25.75654        -0.72866
H         14.61854        25.13109        -1.37346
O         24.28621         8.64773         1.35067
H         23.55446         7.99650         1.28101
O         15.65838        49.88758        -2.18990
H         15.73689        50.73508        -2.67590
O         15.25206        24.13875         2.60048
H         15.10284        24.97394         3.11265
O         31.87511        29.66493        -1.92214
H         31.07569        30.16398        -2.23145
O         18.70492        31.40002        -1.31321
H         18.09704        31.97766        -1.83195
O         33.24966        27.41042        -1.87059
H         32.68470        28.12718        -2.25568
O         32.77869        28.81263         1.52562
H         33.54502        28.36369         1.94171
O         19.90383        32.92895         3.16350
H         20.32141        33.61913         3.73558
O         17.51036        38.08175        -0.94243
H         17.01078        38.73493        -1.47670
O         34.08998        34.02214        -1.54098
H         34.71676        34.70467        -1.86873
O         14.31327        47.10324         2.28304
H         15.21274        47.29936         2.62641
O         26.79315        12.15878        -1.48774
H         27.55773        12.61110        -1.90502
O         16.74514        21.14235        -1.41229
H         17.32655        21.84599        -1.76833
O         15.95371        20.18033         2.03138
H         15.12873        19.83566         2.43192
O         14.51686        26.54724         2.77535
H         13.85422        27.21976         3.13628
O         28.42440        11.92724         1.85172
H         27.61616        11.61281         2.32628
O         24.42541         7.68543        -4.00013
H         25.16659         8.18768        -3.59826
O         20.55420        58.01036        -0.37989
H         20.81367        57.36675         0.31536
O         25.50055        50.02007         2.15147
H         26.39355        50.04712         2.57688
O         27.74780        48.53603         2.12509
H         28.32909        47.81859         2.47940
O         36.58322        22.61135        -0.44733
H         36.30593        22.86833        -1.35076
O         25.95905        11.19892         1.87807
H         25.08910        11.06417         2.32966
O         10.86091        37.55574        -2.05084
H         11.67228        37.09850        -2.36044
O         19.61670        18.40801        -1.77716
H         19.50598        19.36370        -1.97119
O         30.42843        24.47268        -1.73787
H         29.56283        24.05663        -1.94228
O         19.12011        25.56680         3.11356
H         19.97183        25.44419         3.59643
O         25.90525        44.34400        -1.76998
H         26.83940        44.55471        -1.98792
O         21.26471        11.44854        -2.47278
H         21.33734        10.83851        -3.23647
O         20.12164        52.20866        -2.10619
H         19.52267        51.60595        -2.59475
O         34.29305        31.20070        -1.85910
H         34.18196        32.16497        -2.05496
O         29.51858        31.12763        -1.81309
H         29.12084        31.98234        -2.10479
O         17.17946        47.56399        -1.42621
H         16.78774        48.23185        -2.03734
O         24.51806        26.84373         2.66051
H         23.75584        26.37286         3.06107
O         21.77162        56.36367        -4.41460
H         22.05225        55.42296        -4.30319
O         29.20501        54.65213        -1.95952
H         28.89504        54.15824        -2.74581
O         28.57903        37.21209        -0.83261
H         27.73250        37.14968        -1.33741
O         19.62714        40.17639         2.95019
H         19.11514        39.59804         3.55722
O         23.58574        43.78342        -1.40802
H         24.12535        43.29258        -2.06468
O         20.16634        53.43146         1.34410
H         20.87450        53.91212         1.82501
O         28.02390        18.58873         1.83949
H         28.82077        19.00178         2.23476
O         29.26463        32.88660         2.50967
H         29.16213        33.56011         3.23083
O         20.26152        10.89595         0.99165
H         20.28381        11.48899         1.77148
O         35.34291        37.45877        -1.68218
H         36.21248        37.28080        -2.10022
O         31.90165        20.92263         2.10764
H         32.17879        20.02344         2.38499
O         26.68165        44.31442         1.83344
H         25.95678        43.80861         2.25896
O         27.13155        22.20449         2.49770
H         26.31684        21.77466         2.85805
O         15.92699        33.03083        -1.81933
H         15.65147        33.89783        -2.18881
O         27.52922        48.56489        -1.50307
H         26.74378        48.48094        -2.09263
O         22.84588        41.24424        -1.14670
H         22.01002        40.68013        -1.16406
O         23.19691        27.22363        -0.73820
H         22.41227        27.68462        -1.10300
O         29.13361        35.28752         3.02936
H         29.95335        35.67902         3.40299
O         24.55871        20.71903         2.74384
H         24.53885        19.75635         2.93377
O         23.90584         5.08897        -1.43502
H         24.49097         4.39200        -1.07313
O         28.21354        15.76124        -2.10374
H         27.90774        16.60638        -2.50987
H          4.95706        31.30954         0.58437
H          4.97440        33.77589         0.38304
H          7.31286        27.01123         0.68201
H          6.14202        29.18308         0.67668
H          6.21046        35.88055         0.16684
H          7.43512        37.99728         0.12239
H          9.78586        22.65336         0.58116
H          8.54811        24.79908         0.70733
H          8.65327        40.12310         0.14125
H          9.86342        42.27755         0.01750
H         12.29854        18.36805         0.02400
H         11.03142        20.46826         0.43583
H         11.04826        44.41783         0.14439
H         12.23304        46.60532         0.48266
H         14.80631        14.18669        -0.96459
H         13.54972        16.28301        -0.52423
H         13.61086        48.79604         0.06472
H         14.88774        50.80472        -0.46299
H         17.46290        10.00790        -1.87386
H         16.10488        12.08782        -1.43339
H         16.10112        52.77568        -1.12645
H         17.31754        54.92686        -1.42706
H         20.37254         6.59239        -3.97088
H         18.89056         8.27690        -2.92959
H         18.56098        56.87140        -2.17877
H         19.86156        59.07645        -2.80297
H         24.11711         3.84277        -5.23582
H         21.84057         4.83863        -4.95358
H         23.24736        61.47300        -5.09072
H         21.07593        60.61038        -4.27044
H         25.90824         4.32994        -3.59163
H         26.77347         5.80473        -1.66318
H         26.59649        58.49204        -3.40035
H         25.38307        60.36361        -4.46334
H         27.91509         7.58943        -0.39546
H         29.06112         9.64637         0.21800
H         28.64343        55.06015        -0.02954
H         27.81829        56.64246        -2.39539
H         30.34968        11.88880        -0.25227
H         31.51372        14.02842        -0.58348
H         31.51123        50.69474        -0.63387
H         30.28381        52.76440        -0.86271
H         32.77608        16.16263        -0.43197
H         34.02406        18.33374        -0.28705
H         34.06512        46.83813         0.31009
H         32.80787        48.66092        -0.29057
H         35.27035        20.49755         0.09826
H         35.98203        22.83149         1.50223
H         36.71799        42.24908        -0.21250
H         35.68677        44.43205         0.40713
H         37.67057        24.79700         0.61057
H         38.89498        26.93582         0.59787
H         39.02488        37.94011        -0.01666
H         37.87253        40.12091        -0.13721
H         40.15169        29.04903         0.51724
H         41.42261        31.19449         0.46658
H         41.44252        33.66186         0.30825
H         40.20394        35.81780         0.08032
