         762
 CSIRO Nanostructure Databank - Neutral Graphene Oxide Data Set
C         23.12939        25.17251        -2.67344
C         21.91626        25.85205        -2.56124
C         23.10588        27.94446        -2.24456
C         21.90314        27.23255        -2.36767
C         23.06705        29.47188        -2.20863
C         21.92385        30.04295        -1.36733
C         23.05732        32.21123        -1.61469
C         21.90754        31.35530        -1.10081
C         23.07321        33.63949        -1.12521
C         21.88164        34.42641        -1.30278
C         23.04960        36.53828        -0.83524
C         21.82512        35.77226        -1.07958
C         23.05728        37.96608        -0.39856
C         21.91803        38.75785        -0.46424
C         23.13036        40.80010         0.11890
C         21.94423        40.14492        -0.17025
C         23.19642        42.19003         0.51801
C         22.17933        43.12343         0.20816
C         23.06384        44.74542         1.78881
C         22.17646        44.41338         0.73530
C         23.03560        45.99032         2.56466
C         21.76763        46.60130         2.66642
C         22.64482        48.35548         4.03426
C         21.55353        47.75762         3.40561
C         25.77831        23.82709        -3.32892
C         25.63271        25.10606        -2.61195
C         24.34480        25.86886        -2.58925
C         25.60089        28.08732        -2.41564
C         24.33354        27.25805        -2.33213
C         25.55071        29.35908        -1.58331
C         24.36178        30.09742        -1.69088
C         25.44689        32.02659        -0.66768
C         24.33289        31.44671        -1.30841
C         25.41925        33.44133        -0.31348
C         24.22774        34.21513        -0.62086
C         25.35141        36.31948         0.27431
C         24.28834        35.68994        -0.54598
C         25.44278        37.79534         0.26918
C         24.31865        38.56695        -0.03494
C         25.63561        40.65421         0.77342
C         24.38679        40.03728         0.10268
C         25.52062        41.93376         1.52326
C         24.26010        42.60821         1.38797
C         25.68108        44.62249         3.03944
C         23.96864        43.75066         2.16667
C         25.56923        46.02444         3.12706
C         24.19011        46.58298         3.19561
C         25.87022        48.99987         3.67873
C         23.91187        47.78486         3.89680
C         25.80127        50.36101         3.40363
C         28.23707        23.83988        -3.04336
C         26.99325        23.25025        -3.51287
C         28.21977        25.15297        -2.55724
C         26.92310        25.83577        -2.36007
C         28.09396        27.90652        -1.53593
C         26.91562        27.32511        -2.24760
C         27.84958        29.05406        -0.59957
C         26.65553        29.90814        -0.88344
C         27.65239        31.77673         0.50840
C         26.58010        31.22075        -0.36992
C         27.73233        33.27396         0.57220
C         26.56247        34.03981         0.21222
C         27.83445        36.17495         0.77924
C         26.55217        35.46982         0.60785
C         27.84181        37.55877         0.87797
C         26.66131        38.38233         0.74809
C         27.95201        40.31962         1.60127
C         26.74339        39.74412         1.07286
C         27.91346        41.68527         2.17894
C         26.67234        42.49565         2.13929
C         28.05829        44.57015         2.61135
C         26.79892        43.85631         2.62417
C         28.03530        45.99339         2.82964
C         26.83746        46.74805         3.06530
C         28.19454        48.96832         3.03306
C         26.91887        48.17720         3.18656
C         28.02136        50.34430         2.41662
C         26.84237        51.00053         2.66052
C         30.81579        21.13122        -3.64290
C         29.60708        21.80614        -3.63334
C         30.63260        23.67464        -2.45039
C         29.47861        23.09966        -3.06338
C         30.58907        25.03362        -1.99783
C         29.40153        25.78974        -2.04722
C         30.42222        27.68396        -0.78582
C         29.32851        27.08682        -1.40052
C         30.27944        28.78905         0.14049
C         28.95268        29.48944         0.33632
C         30.07002        31.67046         1.30939
C         28.84498        30.90828         0.92111
C         30.01237        33.12166         1.47360
C         28.87127        33.92778         1.02660
C         30.27403        36.01498         1.02637
C         29.03517        35.38229         0.93476
C         30.38796        37.46427         0.88244
C         29.11579        38.28734         0.89850
C         30.45899        40.21872         1.94786
C         29.14699        39.65393         1.43983
C         30.51643        41.72459         1.86939
C         29.29107        42.42113         2.27981
C         30.57995        44.52267         2.39521
C         29.25954        43.87703         2.33121
C         30.61153        45.99022         2.64319
C         29.30461        46.71470         2.52020
C         30.60128        48.95812         2.32284
C         29.33443        48.19798         2.43779
C         30.53974        50.27876         1.94356
C         29.28470        51.12219         2.08039
C         30.27179        52.54501         0.30703
C         29.16544        52.05508         0.90173
C         33.50180        19.97096        -4.01722
C         33.25979        20.95581        -2.98400
C         31.96001        21.65911        -2.98793
C         32.91477        23.36743        -1.46490
C         31.82802        22.89505        -2.34345
C         32.93879        24.81183        -1.09863
C         31.82852        25.69041        -1.56440
C         32.88794        27.52559        -0.08717
C         31.75612        27.06764        -0.91983
C         32.73101        28.62338         0.71994
C         31.37275        29.05067         0.94236
C         32.55552        31.64620         1.45496
C         31.25822        31.07715         1.74057
C         32.45136        32.98050         1.10936
C         31.39482        33.84499         1.58065
C         32.84119        36.00649         1.17120
C         31.51155        35.36919         1.60206
C         32.89070        37.39474         1.11120
C         31.66550        38.16358         1.16951
C         32.86789        40.29229         1.04800
C         31.66021        39.52304         1.36367
C         32.94005        41.74166         1.26444
C         31.73018        42.44082         1.64449
C         32.95861        44.64034         1.50086
C         31.77442        43.84295         1.87930
C         33.10051        46.06109         1.94250
C         31.90733        46.74424         2.48663
C         33.10057        48.95528         1.92674
C         31.88845        48.25481         2.36959
C         33.00161        50.31333         1.63670
C         31.73180        50.95885         1.51961
C         32.77398        52.78090         0.26343
C         31.61506        52.15132         0.72937
C         32.76758        53.70352        -0.83564
C         35.75010        19.46488        -3.15741
C         34.69513        19.34243        -4.16948
C         35.56152        20.55455        -2.11135
C         34.30101        21.33643        -2.14918
C         35.40471        23.16714        -0.69597
C         34.16504        22.53767        -1.28953
C         35.48036        24.66495        -0.58576
C         34.24682        25.47075        -0.78253
C         35.33993        27.31284         0.68788
C         34.12958        26.73863        -0.00021
C         35.26657        28.73423         1.19116
C         33.90637        29.38700         1.29122
C         35.22377        31.66717         1.13287
C         33.85641        30.91417         1.15758
C         35.35080        33.14296         1.39289
C         34.28501        34.00975         1.03619
C         35.20318        36.04217         2.04803
C         34.08868        35.32405         1.42119
C         35.27373        37.47870         1.77562
C         34.16626        38.08352         1.21755
C         35.44242        40.25332         0.88970
C         34.15682        39.51270         0.86780
C         35.40773        41.71288         0.92580
C         34.19267        42.39856         1.09442
C         35.51097        44.57282         1.14364
C         34.20777        43.88180         1.05449
C         35.47138        46.04963         1.24868
C         34.27345        46.76534         1.77001
C         35.57337        48.93373         1.80261
C         34.35670        48.23930         1.88617
C         35.57372        50.44429         1.69697
C         34.22619        51.13166         1.55791
C         35.28488        53.08270         0.27978
C         34.07149        52.56695         1.02692
C         35.12031        54.44127        -0.36684
C         33.86039        54.42079        -1.20692
C         38.51143        17.26178        -4.50877
C         37.27457        17.87505        -4.31368
C         38.25410        19.42920        -2.71638
C         37.12279        18.94677        -3.42742
C         38.15784        20.59995        -1.83887
C         36.80517        21.10491        -1.44649
C         37.96250        23.18166        -0.33395
C         36.71662        22.41940        -0.71036
C         37.92752        24.65070        -0.11931
C         36.69640        25.32932        -0.02287
C         37.84990        27.41530         0.56751
C         36.65319        26.68694         0.37280
C         37.80765        28.81882         0.99991
C         36.52433        29.53336         1.15236
C         37.82541        31.66602         1.27166
C         36.49879        30.89658         1.27468
C         37.77538        33.07430         1.83437
C         36.52407        33.76884         1.85866
C         37.76515        35.95448         2.19953
C         36.50259        35.20857         2.23272
C         37.81217        37.36101         2.06026
C         36.53807        38.23026         2.15007
C         37.87949        40.32035         1.62233
C         36.68575        39.52017         1.32192
C         37.91823        41.66727         1.35632
C         36.73513        42.41168         0.72448
C         37.97584        44.56028         1.26779
C         36.70048        43.88163         1.10540
C         38.02813        45.95274         1.35818
C         36.78459        46.75396         1.35550
C         38.15202        48.69420         1.98113
C         36.80116        48.05925         2.12724
C         38.04256        50.81721         1.35317
C         36.71305        51.25040         1.14048
C         37.72551        53.12653        -0.16411
C         36.51622        52.47089         0.41244
C         37.55465        54.27114        -1.09730
C         36.32199        54.91841        -1.15913
C         37.33100        56.71390        -2.45351
C         36.22084        56.13968        -1.86218
C         41.17212        16.21600        -5.18959
C         40.94022        16.90296        -3.87092
C         39.64619        17.71010        -3.82266
C         40.68561        19.23163        -2.16036
C         39.50454        18.78964        -2.92458
C         40.60533        20.54425        -1.41029
C         39.29086        21.22083        -1.35232
C         40.51950        23.33063        -0.56948
C         39.27873        22.51250        -0.61325
C         40.43523        24.68172        -0.07276
C         39.14079        25.34701         0.10220
C         40.34636        27.46671         0.58815
C         39.08464        26.73563         0.39703
C         40.28536        28.91458         1.04125
C         38.96673        29.49870         1.28804
C         40.24175        31.56384         2.12742
C         38.90149        30.84060         1.98870
C         40.20871        32.95178         2.24330
C         38.97551        33.70076         2.14577
C         40.25984        35.88881         2.20210
C         38.99064        35.15335         2.59794
C         40.29039        37.36970         2.53089
C         39.02600        38.06137         2.07574
C         40.33725        40.15427         1.63417
C         39.05287        39.56762         2.23202
C         40.35688        41.65087         1.89970
C         39.14458        42.40303         1.55813
C         40.46324        44.49368         1.40522
C         39.19725        43.80020         1.42159
C         40.46802        45.91852         1.30590
C         39.27843        46.64498         1.35837
C         40.50056        48.90464         1.16688
C         39.27877        48.10324         1.48781
C         40.39062        50.31949         0.57252
C         39.10615        51.06514         0.48473
C         39.92824        52.67159        -1.39363
C         39.01979        52.36257        -0.21982
C         39.97820        54.15593        -1.70881
C         38.70809        54.83281        -1.73447
C         39.78346        56.69535        -2.97212
C         38.60018        56.08709        -2.39474
C         39.68928        57.91863        -3.67851
C         43.58116        16.27987        -4.85787
C         42.43132        15.88035        -5.58860
C         43.49283        17.19448        -3.79097
C         42.16517        17.67806        -3.40895
C         43.16991        19.31925        -1.82838
C         42.02047        18.73954        -2.56147
C         43.09299        20.72192        -1.36064
C         41.85040        21.32636        -1.19052
C         43.00887        23.43629        -0.56631
C         41.74916        22.70848        -0.80488
C         42.93825        24.78142         0.11396
C         41.60417        25.35247         0.32392
C         42.62548        27.22250         1.57448
C         41.56932        26.67829         0.83953
C         42.32194        28.44311         2.26583
C         41.39170        29.40117         1.89440
C         42.69908        31.42960         2.64315
C         41.45598        30.79388         2.32397
C         42.74470        32.91729         2.74335
C         41.45410        33.68380         2.57187
C         42.82349        35.85930         2.32055
C         41.53696        35.12972         2.19410
C         42.80301        37.26099         2.21037
C         41.59624        38.04083         2.12991
C         42.87500        40.13012         1.71693
C         41.63468        39.42593         1.94621
C         42.90120        41.55215         1.49616
C         41.70088        42.36355         1.75894
C         42.92587        44.39530         1.01956
C         41.69431        43.78377         1.40921
C         42.89715        45.78994         0.62290
C         41.75271        46.61355         1.09544
C         42.75233        48.66202        -0.07538
C         41.76286        48.09909         0.91611
C         42.87848        50.19974        -0.11708
C         41.47648        50.75966        -0.39323
C         42.48554        52.75623        -1.66307
C         41.28626        51.98856        -1.25059
C         42.40563        54.03497        -2.15494
C         41.13470        54.76410        -2.19260
C         42.20635        56.70660        -3.38655
C         41.05733        56.06920        -2.82381
C         42.06892        57.91528        -4.06799
C         40.81234        58.51817        -4.21915
C         45.97816        17.38422        -3.59295
C         44.65289        17.71715        -3.15533
C         45.73309        19.51265        -1.72193
C         44.52856        18.71481        -2.07167
C         45.64165        20.80837        -1.27511
C         44.32723        21.42407        -1.04712
C         45.47961        23.27383         0.18117
C         44.27076        22.69238        -0.51237
C         45.33426        24.71600         0.67638
C         44.11868        25.30267         0.85845
C         45.20312        27.15526         2.37181
C         43.93666        26.50609         1.74409
C         45.21851        28.60156         2.72525
C         44.10753        29.35425         3.03614
C         45.19035        31.50706         2.75160
C         43.97858        30.78466         2.82825
C         45.21808        32.91523         2.47586
C         44.01507        33.65075         2.48659
C         45.28904        35.73151         2.08517
C         44.03932        35.08350         2.33488
C         45.37330        37.20351         2.09585
C         44.07365        38.00683         2.19292
C         45.33840        40.01818         1.42360
C         44.09993        39.40485         1.73163
C         45.36056        41.47768         1.24961
C         44.09379        42.22621         1.18717
C         45.35941        44.28484         0.44315
C         44.11703        43.63659         0.93658
C         45.22517        45.66865        -0.17764
C         43.92315        46.35867        -0.08669
C         44.94565        48.27235        -1.43729
C         43.79001        47.73115        -0.64133
C         45.02868        49.75412        -1.63962
C         43.92518        50.65297        -1.16160
C         44.78407        52.44617        -2.78382
C         43.66774        51.90129        -1.95407
C         44.91395        53.93721        -2.82658
C         43.65184        54.73674        -2.58358
C         44.70100        56.54445        -4.04757
C         43.56145        56.11063        -3.20037
C         47.09371        17.84376        -2.96698
C         48.23839        19.61357        -1.66886
C         47.02278        18.73167        -1.74334
C         48.09618        21.02229        -1.58454
C         46.84332        21.65629        -1.16221
C         47.91083        23.72730        -0.19671
C         46.76118        22.92670        -0.56864
C         47.85714        24.73750         0.80394
C         46.58503        25.52916         0.94100
C         47.73757        27.08567         2.52572
C         46.55297        26.55937         2.05787
C         47.75774        28.48578         3.13791
C         46.48761        29.27451         3.06186
C         47.75870        31.50068         2.73071
C         46.45970        30.78573         3.04114
C         47.66679        32.85463         2.17335
C         46.47489        33.57098         2.15416
C         47.68561        35.69014         1.52688
C         46.47766        34.99705         1.86803
C         47.71347        37.09007         1.34511
C         46.55785        37.87883         1.53574
C         47.73237        39.90592         0.66587
C         46.55172        39.27913         1.27359
C         47.71910        41.24296         0.20028
C         46.61780        42.11787         0.59737
C         47.55231        43.92775        -0.77780
C         46.49489        43.43678        -0.00484
C         47.52549        45.38295        -1.12653
C         46.14227        45.95492        -1.36626
C         47.38141        48.11134        -2.27632
C         46.13688        47.42956        -1.79301
C         47.28946        49.40379        -2.74309
C         46.02201        50.17296        -2.69728
C         47.27466        52.30421        -3.47280
C         46.00586        51.61256        -3.09991
C         47.23039        53.69088        -3.98662
C         46.10720        54.55511        -3.53572
C         45.86455        55.87149        -4.16002
C         50.67991        19.79278        -1.68350
C         49.50926        19.02746        -1.73847
C         50.58330        21.19122        -1.71446
C         49.29070        21.74105        -1.80019
C         50.39270        23.69437        -0.04247
C         49.19071        23.50338        -0.75980
C         50.28209        24.51236         1.10452
C         49.05138        25.19406         1.38701
C         50.15251        26.59402         3.01725
C         49.00108        26.32739         2.32014
C         50.20283        28.77638         3.44849
C         49.00350        29.32731         3.07521
C         50.20455        31.33140         2.29882
C         49.01723        30.70825         2.60171
C         50.19550        32.79543         2.04000
C         48.90260        33.44168         1.65402
C         50.22569        35.58689         1.17103
C         48.91790        34.90976         1.29794
C         50.25939        37.03885         0.98014
C         48.98378        37.80708         1.06931
C         50.04697        39.71220        -0.18121
C         48.91924        39.15650         0.47405
C         49.97748        41.00027        -0.74514
C         48.79812        41.79100        -0.56071
C         49.79062        43.71538        -1.89312
C         48.70016        43.13847        -1.05633
C         49.83414        45.18255        -2.19984
C         48.70412        46.04281        -1.74603
C         49.77279        47.93179        -2.93555
C         48.61116        47.36230        -2.40972
C         49.70784        49.34207        -3.35700
C         48.34128        49.90746        -3.70269
C         49.39913        51.93148        -4.87783
C         48.44049        51.42784        -3.80608
C         49.52937        53.43105        -4.81452
C         48.43483        54.21649        -4.51274
C         52.98643        21.72412        -2.01303
C         51.73887        22.07151        -1.46460
C         52.89181        23.61134         0.04187
C         51.67029        23.13357        -0.51159
C         52.84427        24.34329         1.33561
C         51.51114        24.77517         1.86714
C         52.67684        26.85091         2.78156
C         51.47799        25.96991         2.79357
C         52.39216        28.26366         2.49672
C         51.45253        29.20086         2.86645
C         52.71515        31.28956         1.76728
C         51.56043        30.70992         2.62495
C         52.69915        32.75145         1.48378
C         51.45273        33.52562         1.72391
C         52.66495        35.55621         0.88040
C         51.41598        34.90048         1.17749
C         52.61994        36.88216         0.31510
C         51.43347        37.59211         0.28534
C         52.53862        39.53392        -0.94660
C         51.27285        38.88310        -0.40929
C         52.50080        40.99847        -1.16934
C         51.15266        41.55948        -1.48184
C         52.34645        43.73987        -2.24546
C         51.07399        42.94880        -2.04626
C         52.32076        45.21618        -2.42103
C         51.10629        45.89071        -2.52375
C         52.24094        47.86929        -3.46554
C         51.04998        47.25318        -2.94155
C         52.11793        49.11400        -4.21035
C         50.93102        49.97721        -4.02883
C         51.57484        51.37343        -5.95216
C         50.69837        51.13410        -4.91801
C         54.14159        22.40739        -1.65851
C         55.37958        23.94763        -0.12049
C         54.13046        23.31876        -0.58276
C         55.34598        24.71118         1.11138
C         54.09999        25.00498         1.88339
C         55.21538        27.22054         2.66098
C         53.97249        26.37476         2.51347
C         55.31972        28.67845         2.51271
C         54.23281        29.37350         1.96564
C         55.24069        31.52740         2.15309
C         54.08177        30.74557         1.98545
C         55.17469        32.93203         1.84607
C         53.96364        33.53125         1.46607
C         55.15233        35.64901         0.95548
C         53.90479        34.90872         1.09758
C         55.15379        36.91833         0.38158
C         53.89405        37.45115        -0.18590
C         55.10825        39.68458        -0.68529
C         53.86565        38.83439        -0.79274
C         54.97689        41.15483        -0.93195
C         53.63544        41.74839        -1.20961
C         54.72888        44.06691        -1.38616
C         53.63114        43.12745        -1.76602
C         54.79482        45.37959        -2.07612
C         53.54909        45.94268        -2.59327
C         54.78375        47.95914        -3.34633
C         53.49551        47.21108        -3.21839
C         55.07174        48.79773        -4.51126
C         52.98398        49.50485        -5.25656
C         52.73014        50.57942        -6.11313
C         57.82013        24.43645        -0.28621
C         56.60819        23.72526        -0.71253
C         57.81214        25.08036         1.09651
C         56.52855        24.92844         1.76214
C         57.71717        27.29643         3.22841
C         56.41025        26.63100         3.01128
C         57.70894        28.83363         3.30328
C         56.46473        29.46858         2.80836
C         57.66717        31.65894         2.57814
C         56.46309        30.86864         2.49935
C         57.62277        33.06310         2.32709
C         56.38350        33.70557         1.88683
C         57.61859        35.80044         1.45770
C         56.36668        35.01194         1.41148
C         57.62138        37.18346         0.90207
C         56.44113        37.67662         0.05124
C         57.14975        40.14579         0.79893
C         56.23305        39.17401         0.10530
C         57.15868        41.53877         0.17665
C         56.06698        42.04729        -0.45196
C         57.21689        44.26398        -0.86581
C         55.96088        43.50650        -0.72936
C         57.23068        45.45762        -1.57294
C         56.00819        46.06339        -2.07443
C         57.34544        48.04494        -3.01052
C         56.05540        47.43473        -2.64155
C         57.40704        49.07179        -3.91338
C         56.27968        49.39907        -4.73100
C         60.19098        24.73071         1.73787
C         59.00052        25.44611         1.93718
C         60.16233        26.81826         3.55000
C         58.95311        26.50099         2.89675
C         60.14045        29.14940         3.86895
C         58.95429        29.65527         3.31266
C         60.09457        31.83891         3.05631
C         58.91104        31.04125         2.95900
C         60.03581        33.26534         2.78036
C         58.77770        33.85608         2.48939
C         59.91604        36.13137         2.37010
C         58.61666        35.36788         2.52036
C         59.79753        37.60208         2.21582
C         58.54988        38.17242         1.54017
C         59.62362        40.37639         1.34340
C         58.53297        39.58076         1.09269
C         59.55154        41.85254         1.12731
C         58.27834        42.44969         0.53450
C         59.57694        44.44297        -0.17209
C         58.39119        43.73439        -0.19924
C         59.78827        45.68079        -1.01536
C         58.54958        46.10791        -1.82584
C         59.65729        48.38820        -2.01337
C         58.59414        47.46937        -2.44305
C         61.34855        25.02439         2.46024
C         61.34038        26.08388         3.36431
C         61.30686        29.93092         3.95311
C         61.28794        31.24851         3.52653
C         61.18537        34.08261         2.77526
C         61.11608        35.47395         2.51982
C         60.97227        38.48367         2.18517
C         60.86625        39.78164         1.80541
C         60.78166        42.63686         0.96478
C         60.75966        43.88340         0.42293
C         60.38313        46.84964        -0.26795
C         60.41271        48.09642        -0.87391
O         50.93247        33.52641         3.11487
O         30.71782        45.12363         3.80830
O         44.91781        37.78410         3.36597
O         45.23574        50.61678        -0.47764
O         29.85247        38.04576        -0.36227
O         45.03924        47.63280        -2.75606
O         42.53427        48.02183        -1.36609
O         22.84603        29.82169        -3.56477
O         30.66915        33.42923         2.76211
O         28.60618        41.79137         3.44894
O         52.48142        31.75003         0.40619
O         41.98576        33.43983         3.90659
O         43.90935        55.93189        -1.78535
O         48.79565        33.85491         0.25185
O         58.30769        36.08701         0.18859
O         55.18258        48.44828        -2.02826
O         27.92780        28.08798        -2.99383
O         51.48610        24.61570         3.32059
O         53.18870        28.66032         1.40220
O         32.43322        23.84297        -0.14834
O         54.14450        48.78898        -5.55868
O         49.22236        23.11112        -2.10380
O         47.22988        31.40257         4.10672
O         51.63308        38.82310        -1.83342
O         60.22273        27.87823         4.46292
O         32.20826        26.86487        -2.32585
O         45.61095        50.54632        -4.05296
O         48.41397        52.09209        -2.52857
O         32.14867        47.56132         3.66540
O         34.93010        51.11056         2.85267
O         50.93024        41.79363        -2.91670
O         35.62105        35.56177         3.35058
O         38.22076        49.99189         2.47092
O         44.33473        26.25787         3.13349
O         27.90046        28.59269         0.79861
O         40.82154        35.47139         0.93477
O         49.35623        44.23389        -3.21304
O         34.46644        22.44545         0.14161
O         24.93327        48.45745         4.57089
O         50.56980        50.22393        -2.61223
O         45.83662        45.50383         1.13006
O         50.17365        27.52243         4.06017
O         40.80899        50.08481         1.95137
O         46.02039        54.45476        -2.04900
O         38.82673        53.43334         0.77048
O         55.46875        40.28575        -2.01658
O         42.25225        47.53421         2.15978
O         43.74256        18.33394        -0.88216
O         57.67757        25.87764        -0.14140
O         42.97513        28.67358         3.46918
O         38.67933        22.47920         0.73297
O         34.54655        28.86190         2.47474
O         40.54927        19.25277        -0.70246
O         56.48026        25.23828         3.13594
O         25.50954        35.76432         1.62071
O         29.12396        47.42151         1.20972
O         34.45072        26.42900         1.41592
O         54.90498        44.16428         0.07184
O         57.63202        28.00494         4.50974
O         27.72014        31.10338         1.82031
O         58.92342        46.23342        -3.24995
O         46.37693        42.14110         2.05222
O         26.21426        25.16048        -1.25217
O         33.37381        39.87913        -0.29523
O         58.53526        42.51032         1.98064
O         24.56175        43.86792         3.42747
O         36.64037        21.16235         0.00522
O         24.10927        36.32405        -1.84263
O         43.64986        51.81499        -3.43821
O         40.57951        28.58744        -0.35385
O         41.07702        42.07028         3.07426
O         53.60940        23.75507         2.45055
O         46.97267        28.69709         4.34735
O         53.98339        37.67434        -1.64735
O         48.44706        46.15061        -0.29253
O         36.07182        46.76850         0.09112
O         58.64968        38.10261         2.99419
O         25.41597        40.73868        -0.67783
O         34.48689        31.31306        -0.09629
O         36.36973        39.59289        -0.09650
O         49.90874        37.77805         2.23954
O         43.19876        24.68475        -1.34750
O         53.29874        43.14001        -3.18608
O         41.19058        50.61494        -1.81110
O         35.32504        19.14616        -1.79093
O         33.30921        33.51836         0.15511
O         35.19319        25.36775        -1.88527
O         31.18478        29.74916         2.13174
O         33.30309        44.46120         0.06505
O         36.52244        38.64099         3.49995
O         56.74115        37.37935        -1.33869
H         57.28432        36.55678        -1.34650
O         43.28735        50.67524         1.16082
H         44.26774        50.62175         1.21920
O         30.50100        39.86384         3.37619
H         29.82077        40.42121         3.83026
O         40.26265        37.44028         3.99598
H         39.95462        38.35913         4.23171
O         38.95257        39.74955         3.66720
H         38.01524        39.40283         3.87975
O         45.61185        45.17491        -2.46345
H         45.02046        45.76699        -2.98737
O         31.49047        35.77145         3.00684
H         30.97001        35.09006         3.49735
O         47.01106        17.86751        -0.56873
H         46.13365        17.42968        -0.52581
O         56.58504        40.38509         2.14375
H         57.14799        41.08160         2.56149
O         38.91224        35.11328         4.04454
H         39.21123        35.99397         4.38919
O         33.93312        53.41523         2.21463
H         34.50204        53.00728         2.91146
O         40.15711        39.99050         0.19448
H         41.00134        40.20124        -0.25622
O         40.76182        15.83096        -2.88628
H         40.67864        16.24894        -2.00214
O         22.92543        32.36160        -3.04928
H         22.87451        31.44371        -3.46134
O         46.62878        26.42664        -0.25433
H         46.54805        25.86405        -1.05566
O         38.23457        31.78774        -0.11386
H         37.49680        32.18211        -0.62439
O         39.26236        52.09941        -2.55741
H         39.74032        51.27090        -2.79655
O         60.84373        45.29811        -1.94875
H         60.56150        45.64713        -2.83284
O         45.57119        22.53640         1.45330
H         45.67533        21.58222         1.24760
O         48.74722        51.66792        -6.16323
H         48.52375        50.70338        -6.17699
O         47.96699        49.37509        -5.00969
H         46.98992        49.50067        -5.09498
O         36.99229        42.37588        -0.71505
H         36.91982        41.43170        -0.99017
O         34.91716        55.43751         0.67747
H         34.40260        55.00040         1.40176
O         29.53958        51.95853         3.25615
H         29.62188        51.34738         4.02222
O         38.42044        30.62052         3.33723
H         39.15034        30.26073         3.88293
O         58.02503        35.67282         3.81427
H         58.72853        35.63431         4.49458
O         28.68367        49.25958         4.40246
H         27.92573        49.61719         4.91496
O         36.65637        47.69045         3.53045
H         36.77044        48.50289         4.06926
O         51.88941        31.17724         3.97371
H         51.59030        32.12005         4.04959
O         25.58823        28.54279        -3.79888
H         26.47414        28.92675        -3.98741
H         23.13043        24.08645        -2.84086
H         20.96997        25.30025        -2.64778
H         20.94239        27.76444        -2.33862
H         21.10047        29.39265        -1.03412
H         21.08477        31.81723        -0.53276
H         20.95976        33.89310        -1.57670
H         20.85483        36.28941        -1.09471
H         20.95549        38.30652        -0.74097
H         20.99784        40.70382        -0.17894
H         21.40304        42.84123        -0.51617
H         21.43205        45.14059         0.38305
H         20.91139        46.11380         2.18157
H         22.52988        49.26657         4.63470
H         20.54707        48.18689         3.49476
H         24.88507        23.35831        -3.76685
H         24.95336        50.95054         3.77427
H         27.03939        22.29074        -4.04690
H         26.72020        52.05371         2.36879
H         30.86329        20.14140        -4.11645
H         28.73848        21.32804        -4.10569
H         30.17101        53.28045        -0.50386
H         28.16723        52.38630         0.57983
H         32.72813        19.82133        -4.78256
H         31.84965        53.78893        -1.43657
H         34.87639        18.73917        -5.06986
H         33.80008        55.06858        -2.09439
H         38.56526        16.39103        -5.17439
H         36.39925        17.47132        -4.83926
H         37.21383        57.68684        -2.94769
H         35.25980        56.67151        -1.88617
H         40.31277        15.87137        -5.78017
H         38.71691        58.41040        -3.80663
H         44.55738        15.90392        -5.18922
H         42.57455        15.28649        -6.50311
H         42.94760        58.42208        -4.48732
H         40.72580        59.47050        -4.75925
H         46.10356        16.71370        -4.45464
H         44.59493        57.47936        -4.61600
H         48.08361        17.52371        -3.32330
H         46.64378        56.26819        -4.82782
H         51.66047        19.30300        -1.61042
H         49.58663        17.93187        -1.75142
H         50.45593        53.90075        -5.17436
H         48.51660        55.30568        -4.64971
H         53.03653        20.92496        -2.76542
H         51.37881        52.19662        -6.65273
H         55.08254        22.16285        -2.16830
H         53.43600        50.78627        -6.92683
H         58.78478        24.12462        -0.73755
H         56.71317        23.01042        -1.53963
H         58.37397        49.53771        -4.14839
H         56.42808        50.00795        -5.63167
H         60.20457        23.91271         1.00415
H         59.67948        49.40499        -2.42972
H         62.26124        24.43498         2.30187
H         62.24152        26.35400         3.92919
H         62.21681        29.49471         4.38455
H         62.20434        31.84606         3.61469
H         62.17891        33.64299         2.93004
H         62.06144        36.03249         2.45715
H         61.95641        38.07687         2.45822
H         61.76798        40.40713         1.83988
H         61.74604        42.20216         1.25951
H         61.69768        44.44621         0.32146
H         60.98999        46.66048         0.62903
H         61.03249        48.89286        -0.43522
