         276
 CSIRO Nanostructure Databank - Neutral Graphene Oxide Data Set
C        -11.21445         0.56197        -0.79481
C         -9.94262         1.28851        -0.76367
C         -8.69608         0.51408        -0.51744
C         -7.33369         1.11517        -0.76960
C         -6.05452         0.43558        -0.22418
C         -4.99042         1.41050         0.21311
C         -3.79639         0.78072         0.86831
C         -2.52989         1.41295         0.31520
C         -1.19464         0.72156         0.59455
C          0.10918         1.46017         0.76998
C          1.45187         0.70495         0.86240
C          2.67572         1.51808         1.19948
C          3.95494         0.73084         1.45062
C          5.02910         1.35210         0.51890
C          6.42063         0.66890         0.74982
C          7.70064         1.43418         0.37170
C          8.79847         0.79874        -0.40628
C          9.96712         1.61904        -0.82494
C         11.08803         0.85981        -1.21897
C         -9.88459         2.62478        -1.02669
C         -8.60968         3.35798        -1.23062
C         -7.29748         2.57786        -1.17050
C         -6.03260         3.36744        -0.91825
C         -4.96066         2.73079        -0.10662
C         -3.82114         3.57704         0.39063
C         -2.52043         2.88977         0.66168
C         -1.21940         3.64355         0.83956
C          0.07771         2.91514         1.13767
C          1.42851         3.57034         1.39913
C          2.66993         2.87224         0.98316
C          3.90576         3.75356         0.77385
C          5.10464         2.87235         0.38561
C          6.40735         3.56665         0.19782
C          7.72223         2.93765         0.61990
C          8.88451         3.69493        -0.00942
C          9.95217         3.02957        -0.59952
C         -8.57834         4.82424        -1.10215
C         -7.39410         5.57631        -1.13891
C         -6.08254         4.86781        -1.03986
C         -4.94608         5.70464        -0.51416
C         -3.78681         5.05690         0.14486
C         -2.43393         5.68184        -0.16440
C         -1.20034         5.07601         0.48026
C         -0.02070         5.78932         0.40189
C          1.19208         5.21293        -0.27690
C          2.53624         5.88826        -0.23468
C          3.77017         4.95746        -0.33306
C          5.11696         5.76049        -0.31810
C          6.40003         5.06144         0.00713
C          7.63232         5.79028         0.38760
C          8.82774         5.13272         0.24410
C         -7.37164         6.98614        -1.13248
C         -6.12883         7.74286        -1.37921
C         -4.80607         7.04227        -1.18538
C         -3.49075         7.83830        -1.08505
C         -2.44955         7.18734        -0.19690
C         -1.39606         7.89859         0.27031
C         -0.20435         7.20675         0.82496
C          1.34089         7.99386        -0.88107
C          2.58000         7.22555        -0.49892
C          3.84595         8.00832        -0.55374
C          5.13134         7.27391        -0.35714
C          6.38757         8.04093         0.11033
C          7.39757         7.18481         0.92294
C         -6.09174         9.22378        -1.33318
C         -4.96748         9.91829        -1.03452
C         -3.67655         9.30278        -0.72880
C         -2.63350        10.02179        -0.23921
C         -1.35067         9.40959         0.28615
C         -0.04558        10.03185        -0.20419
C          1.21608         9.39511        -0.36730
C          2.39898        10.05809        -0.04637
C          3.78911         9.52525        -0.31146
C          4.78704         9.88765         0.77865
C          5.94812         9.24004         0.94662
C        -11.48176        -0.75783        -0.61898
C        -10.63025        -1.88167        -0.13424
C         -8.71620        -0.50836         0.58322
C         -7.51453        -1.39878         0.64243
C         -6.29569        -0.58276         0.96996
C         -5.04584        -1.44286         1.14433
C         -3.80267        -0.65613         1.30113
C         -2.48648        -1.37547         1.50735
C         -1.21161        -0.65952         1.17254
C          0.06823        -1.45034         1.14304
C          1.37179        -0.75290         1.31228
C          2.59801        -1.46561         0.86998
C          3.90251        -0.78891         1.06409
C          5.12855        -1.49626         0.47971
C          6.30248        -0.66668         0.03083
C          7.35875        -1.25800        -0.85282
C          8.62447        -0.49220        -1.20366
C          9.88873        -1.32172        -1.14762
C         11.08051        -0.54584        -1.26096
C         -9.60245        -2.49817        -0.78268
C         -8.64776        -3.42750        -0.09564
C         -7.50669        -2.75251         0.51414
C         -6.40848        -3.50089         1.23594
C         -5.05965        -2.79886         1.16106
C         -3.85058        -3.66538         1.58414
C         -2.39520        -2.92133         1.61532
C         -1.35948        -3.46562         0.58916
C         -0.04225        -2.70468         0.29514
C          1.25089        -3.55686         0.39729
C          2.47532        -2.65109         0.18825
C          3.60617        -3.05737        -0.60020
C          4.89233        -2.67119        -0.39119
C          6.00855        -3.43161        -1.04563
C          7.32165        -2.73250        -1.17101
C          8.60699        -3.47904        -1.08275
C          9.83605        -2.71257        -1.14228
C         -8.68093        -4.79153        -0.16022
C         -7.59747        -5.64146         0.31540
C         -6.38074        -5.04986         1.02386
C         -5.10872        -5.56691         0.32274
C         -3.81358        -4.91928         0.65109
C         -2.54589        -5.76629         0.78567
C         -1.33714        -4.93728         0.36115
C         -0.08209        -5.67419        -0.09003
C          1.18164        -4.91533        -0.35294
C          2.43757        -5.71954        -0.56716
C          3.51078        -5.16335        -1.19671
C          4.87209        -5.70461        -1.13986
C          5.99302        -4.93876        -0.97149
C          7.30016        -5.62355        -0.59425
C          8.56158        -4.84243        -0.92653
C         -7.59289        -6.97289         0.01794
C         -6.37822        -7.83921         0.29822
C         -5.15467        -7.01711        -0.21371
C         -3.84419        -7.76860         0.05691
C         -2.56711        -7.01692        -0.21360
C         -1.32663        -7.86263        -0.01264
C         -0.05405        -7.14441         0.37838
C          1.23349        -7.91327         0.06411
C          2.47459        -7.17667        -0.32911
C          3.59124        -7.92407        -1.00764
C          4.87373        -7.18415        -1.26701
C          6.18557        -7.96489        -1.18588
C          7.36978        -7.04797        -1.05276
C         -6.33675        -9.17201        -0.42694
C         -5.18005        -9.84691        -0.57008
C         -3.87299        -9.27858        -0.16066
C         -2.59510        -9.90959        -0.42300
C         -1.37711        -9.24847        -0.12516
C         -0.13128       -10.10433         0.05856
C          1.19404        -9.38434        -0.16482
C          2.35465       -10.05125        -0.36486
C          3.68920        -9.43967        -0.76386
C          4.88094        -9.64557         0.17192
C          6.03326        -8.98876        -0.04461
O          6.23105        -0.54110        -1.43099
O         -4.43613        -4.68345        -0.63703
O          0.24595        -5.22517        -1.44434
O          3.94606        -7.54628        -2.36072
O         -6.29036        -5.61875         2.35772
O          8.80296         0.72291         1.07019
O         -0.79816         3.32048         2.22048
O         -4.74799         5.81706         0.93569
O         -1.73422        -0.67407         2.53344
O         -9.43091        -0.33065         1.56844
O          4.82812        -1.59549         1.89417
O         -3.82933        -8.60699         1.19345
O          0.50473         7.49175        -1.62622
O         -3.92019         0.46493         2.25996
O          2.28427        -7.59364         1.06775
O         -4.13217        -4.12396         2.85773
O          6.02100         5.35262        -1.39697
O          1.02561         4.23243        -1.00294
O         -7.95615         0.21679        -1.74182
O         -5.35933         7.11316        -2.51687
O          0.72907        -1.37764         2.45603
O          3.34951        -3.88153        -1.69789
O          5.72489         3.01514        -0.95362
O          6.50238        -2.99200        -2.36335
O          4.69385         7.68885        -1.70946
O         -5.60203         4.04711        -2.14561
O          1.53179         4.53206         2.16011
O         -3.42705         3.22613         1.75159
O          0.57163         7.75300         1.61384
O         -1.85172        -3.99896        -0.66675
O         -0.38213         1.06830        -0.55776
O         -7.88747         2.85981        -2.44760
O          4.25571         4.39040         2.01252
H          3.41126         4.63215         2.46939
O          1.85642         0.43415        -0.52970
H          1.81871         1.26526        -1.05215
O         -2.62549        -6.52905        -1.56509
H         -2.03551        -5.75079        -1.68009
O         -5.47677        -0.32463        -1.30105
H         -6.19369        -0.52931        -1.94399
O          7.81965         3.14320         2.05206
H          8.50510         2.52262         2.38330
O          7.25325        -5.65502         0.90204
H          8.05087        -6.13842         1.20726
O        -11.02172        -2.35740         1.08043
H        -11.53197        -1.67790         1.56266
O         -6.76053        -3.25824         2.68391
H         -5.51132        -5.13923         2.79661
O          6.35594        -8.73556        -2.40906
H          6.22138        -8.12465        -3.16482
O          1.35367        -4.00993         1.77126
H          1.24208        -3.22564         2.36712
O         -1.29156         9.78808         1.69947
H         -0.53974         9.27681         2.09165
O         -2.89196         7.81403        -2.40868
H         -3.63242         7.70781        -3.05319
O          4.46912         0.93740        -0.74558
H          4.94069         1.40245        -1.47318
O         -2.54846        -6.19666         2.12487
H         -1.64501        -6.49847         2.38896
O         -6.29846        -8.17138         1.68753
H         -6.28926        -7.32934         2.21206
O         -8.08871        -3.78082         2.90885
H         -7.90507        -4.74973         3.03826
O          8.49919        -0.08190        -2.58922
H          7.54270        -0.09345        -2.81963
O         -6.54018         0.22134         2.12751
H         -6.64574        -0.37239         2.90075
O          7.09979         8.50929        -1.04516
H          6.45975         8.55340        -1.79120
O         -5.34038        -6.93338        -1.63336
H         -4.67913        -6.28317        -1.97095
O          4.21134        10.20653        -1.52550
H          4.54751         9.51517        -2.14344
O         -0.07432        -7.04680         1.83594
H          0.86605        -6.93598         2.12436
O          4.00502       -10.11482        -1.99509
H          4.84526        -9.72112        -2.34735
O         -2.19922         5.23980        -1.54108
H         -1.56459         5.85895        -1.96987
O         -1.82224        -3.24799         2.87384
H         -2.58122        -3.62449         3.40883
O         -2.74898         1.31341        -1.11462
H         -1.88368         1.41160        -1.57405
O         -0.12672        -2.19214        -1.04354
H         -0.55946        -2.88631        -1.59546
O          6.82922         7.02256         2.23239
H          7.35643         6.36492         2.73155
O          3.61594         4.36797        -1.61625
H          4.49314         4.40799        -2.06907
O         -0.26091       -11.24715        -0.77808
H          0.57776       -11.75033        -0.77466
O          6.55364         0.41592         2.16020
H          7.49540         0.18011         2.32442
O          4.16851         0.86433         2.84855
H          4.84580         0.20028         3.11437
H         12.03594        -1.06865        -1.41958
H         12.03591         1.38234        -1.41931
H         10.81898         3.61686        -0.94261
H          9.77502         5.68929         0.34246
H          8.36698         7.75209         0.99159
H          6.65505         9.59667         1.71155
H          4.56369        10.77215         1.39577
H          2.34099        11.09657         0.31805
H          0.00676        11.11110         0.02847
H         -2.76325        11.10044        -0.05408
H         -5.02314        11.01598        -0.96544
H         -7.03511         9.76534        -1.50062
H         -8.32078         7.54135        -1.08324
H         -9.54259         5.35346        -1.04998
H        -10.81902         3.18672        -1.18635
H        -12.07881         1.19660        -1.05617
H        -12.54982        -1.03360        -0.69907
H         -9.29849        -2.12715        -1.77359
H         -9.51381        -5.29468        -0.67395
H         -8.45622        -7.41193        -0.50795
H         -7.27896        -9.62449        -0.77260
H         -5.16267       -10.82974        -1.06592
H         -2.55768       -10.94772        -0.78604
H         -0.13747       -10.43864         1.14591
H          2.32840       -11.15002        -0.45552
H          4.81701       -10.39189         0.97909
H          6.90860        -9.18236         0.59395
H          8.35149        -7.46705        -1.32184
H          9.51071        -5.39929        -0.85564
H         10.78340        -3.27531        -1.13907
