         276
 CSIRO Nanostructure Databank - Neutral Graphene Oxide Data Set
C         30.40480        31.57137         0.43050
C         30.45748        32.74411         0.80816
C         30.48413        35.89133         0.97723
C         30.32873        37.14620         0.63805
C         30.23457        40.26682        -0.02545
C         30.30602        41.51214        -0.03355
C         32.85144        28.90433        -0.15633
C         31.71519        29.39391        -0.10130
C         32.84622        31.57829         0.20547
C         31.50816        30.87706        -0.30535
C         32.82630        32.93074         0.58974
C         31.58975        33.56771         1.30005
C         32.82405        35.86044         1.31006
C         31.51227        35.04797         1.09204
C         32.69834        37.38549         0.96950
C         31.37794        38.00365         0.52365
C         32.61765        40.22613         0.15910
C         31.38017        39.29799        -0.25349
C         32.59110        41.58154        -0.59783
C         31.42938        42.40361         0.03167
C         31.79580        44.75260         1.12861
C         31.56149        43.62764         0.60399
C         35.59753        27.35410         0.09640
C         35.36387        28.76076         0.14810
C         34.16715        29.43931         0.03794
C         35.31970        31.58696         0.40264
C         34.09217        30.88278         0.17385
C         35.26134        33.01981         0.50838
C         34.03805        33.69282         0.58789
C         35.23288        36.00153         0.51997
C         33.92606        35.21295         0.42007
C         35.23723        37.36920         0.47221
C         33.95407        38.11435         0.61513
C         35.13262        40.31901         0.46314
C         33.94340        39.47595        -0.06523
C         35.12354        41.66319        -0.28164
C         33.94707        42.27056        -0.62895
C         35.11460        44.42195        -1.22288
C         33.89399        43.59925        -1.30138
C         35.34964        45.75223        -1.24655
C         37.90129        27.23717         0.63878
C         36.58796        26.64899         0.33387
C         37.84257        28.73265         0.57075
C         36.63421        29.45349         0.40796
C         37.80519        31.64999         0.70455
C         36.55698        30.88289         0.51125
C         37.80716        33.10259         0.47056
C         36.52127        33.77248         0.70942
C         37.77132        35.96413         0.40222
C         36.50983        35.27887         0.69034
C         37.76881        37.43661         0.08918
C         36.46347        38.17079         0.36467
C         37.70267        40.37929         0.59189
C         36.43895        39.54324         0.34159
C         37.70455        41.71817        -0.15401
C         36.42694        42.27917        -0.65928
C         37.71892        44.53057        -1.13432
C         36.44223        43.70726        -1.20210
C         37.65495        46.02036        -0.90015
C         36.38079        46.51007        -1.01322
C         40.26435        24.60306        -0.70612
C         39.33539        25.13744        -0.08543
C         40.58044        27.24414         0.23437
C         39.20601        26.48535         0.45957
C         40.26679        28.72259        -0.07749
C         39.19629        29.39389         0.79207
C         40.25380        31.70315         0.10245
C         39.14442        30.92216         0.65684
C         40.23265        33.09258         0.13804
C         38.99457        33.81667         0.39359
C         40.22287        36.02873         0.30263
C         38.96956        35.27940         0.35006
C         40.26423        37.38330         0.55130
C         38.95619        38.14146         0.74973
C         40.01411        40.23811        -0.26623
C         38.94641        39.57289         0.25076
C         40.15612        41.68927         0.12174
C         38.88266        42.38177        -0.34180
C         40.19336        44.56603        -0.29264
C         38.98312        43.79723        -0.77400
C         40.21824        46.05983        -0.65330
C         38.83708        46.72649        -0.28069
C         40.12522        48.79181        -0.62268
C         39.06089        48.17468        -0.62470
C         42.69680        24.72314        -1.66298
C         41.52112        25.20274        -1.07173
C         42.71354        27.37462        -1.12151
C         41.57113        26.60908        -0.76829
C         42.63823        28.86236        -1.06387
C         41.35333        29.53878        -0.68792
C         42.71691        31.68240        -0.24011
C         41.38850        31.06626        -0.66481
C         42.67939        33.12016        -0.02558
C         41.48500        33.81536        -0.03434
C         42.72396        35.90175         0.58133
C         41.49414        35.32740        -0.13488
C         42.74379        37.41107         0.61465
C         41.55111        38.06910         0.74449
C         42.79282        40.33501         0.77489
C         41.67528        39.44829         1.33871
C         42.73264        41.59283         0.24273
C         41.49400        42.30372        -0.35228
C         42.76497        44.56483        -0.44429
C         41.47959        43.81876        -0.10505
C         42.74023        46.04641        -0.07198
C         41.44145        46.79065        -0.04876
C         42.75519        48.80938        -0.71208
C         41.44535        48.50544        -0.03192
C         43.72633        25.43365        -1.86897
C         45.18384        27.60968        -1.83765
C         43.91878        26.79689        -1.63025
C         45.16758        28.81747        -0.85126
C         43.91253        29.63687        -0.94760
C         45.26107        31.65332        -0.29700
C         43.89814        31.00531        -0.38259
C         45.22907        33.02903         0.32201
C         43.96123        33.80063         0.30270
C         45.27238        35.97259         0.51550
C         44.01924        35.28394         0.03219
C         45.30151        37.33288         0.64380
C         44.04028        38.09288         0.88029
C         45.39010        40.24108         0.57338
C         44.09776        39.61812         0.96891
C         45.27954        41.57052        -0.16849
C         44.03190        42.36665         0.21832
C         45.27566        44.61924        -0.15208
C         44.02345        43.86252         0.07190
C         45.23824        46.02181        -0.33805
C         44.04095        46.75505        -0.31930
C         43.79448        48.13125        -0.53181
C         47.49562        27.52028        -1.06848
C         46.49908        26.91834        -1.49842
C         47.73181        28.75394        -0.38747
C         46.38513        29.38136        -0.15958
C         47.67640        31.53899         0.37459
C         46.33820        30.80224         0.41568
C         47.69471        32.98216         0.50381
C         46.52681        33.72181         0.39859
C         47.76524        35.86807         0.22224
C         46.53695        35.17852         0.79476
C         47.76493        37.35226         0.57556
C         46.58620        38.05304         0.69753
C         47.77560        40.17776        -0.09609
C         46.55660        39.51727         0.54645
C         47.86596        41.67824         0.31954
C         46.58361        42.39422        -0.13915
C         47.85302        44.61520         0.40012
C         46.57368        43.89294        -0.10701
C         47.69587        46.02163        -0.17722
C         46.58943        46.53033        -0.37795
C         50.23022        28.97332        -0.29073
C         48.89113        29.41262        -0.04936
C         50.05225        31.49672         0.91677
C         48.86245        30.80832         0.45444
C         50.16900        32.90438         0.92111
C         48.96725        33.69786         0.69425
C         50.25348        35.82429         0.86007
C         49.00643        35.08049         0.63253
C         50.28412        37.23750         0.26067
C         49.08036        38.06324         0.79097
C         50.40338        40.21405         0.32395
C         49.10903        39.46550         0.18081
C         50.42258        41.70149         0.21923
C         49.12818        42.36003        -0.27172
C         50.39279        44.32284         0.06181
C         49.10466        43.88783         0.00421
C         51.40008        29.40066        -0.37303
C         52.77546        31.56021         0.04089
C         51.98478        30.45871         0.38594
C         52.47717        32.68340         0.59950
C         51.46530        33.56302         0.93057
C         52.74602        35.78493         0.57417
C         51.56800        35.02142         1.04401
C         52.59102        37.06489         0.71127
C         51.60234        37.99556         0.53999
C         52.79813        40.28650         0.62388
C         51.58914        39.43757         0.98662
C         52.74632        41.51707         0.50141
C         51.63798        42.40941         0.26625
C         51.57887        43.81114        -0.04282
O         43.23374        29.51835        -2.24632
O         51.08294        30.73595         1.50647
O         45.45202        28.47419         0.53888
O         36.50354        42.59162        -2.10881
O         36.52841        34.53877         1.97306
O         41.12764        39.68998         2.40028
O         50.85284        35.63823         2.16639
O         42.02791        46.35066         1.18801
O         33.42918        38.15314         1.99835
O         40.68750        44.24251         1.03601
O         44.12256        38.80031         2.17447
O         46.78876        43.15366        -1.35979
O         38.60381        31.41423         1.93166
O         32.88902        43.97275        -1.91052
O         50.01361        39.58709        -0.96168
O         44.47710        33.28040         1.57574
O         38.67425        44.10655        -2.17665
O         44.06459        43.22047         1.40505
O         40.20877        29.03442        -1.48415
O         38.65598        26.67837         1.76009
O         41.58929        35.66162        -1.55284
H         41.03187        35.02957        -2.05373
O         51.43642        39.50140         2.39355
H         52.06867        38.88353         2.81535
O         47.51842        40.09217        -1.51561
H         48.25353        40.57998        -1.96868
O         38.01915        37.56902        -1.34859
H         37.17181        37.43640        -1.82404
O         42.89733        44.55644        -1.88212
H         42.65514        43.66070        -2.22101
O         49.20404        38.22496         2.21884
H         49.23444        37.33804         2.63840
O         40.13848        41.72722         1.56090
H         40.19747        42.67060         1.84507
O         31.45313        38.94414        -1.62762
H         31.38181        39.77723        -2.15700
O         47.77060        44.69170         1.81182
H         48.62978        44.99339         2.17297
O         31.42445        31.15416        -1.67940
H         30.58460        30.79296        -2.02983
O         41.22885        31.49046        -2.05299
H         41.82504        30.91439        -2.58982
O         47.66514        35.81197        -1.22193
H         48.51052        36.18675        -1.57803
O         50.12957        37.01386        -1.15727
H         50.23830        37.88941        -1.60385
O         40.40670        46.17897        -2.06533
H         39.78432        45.56509        -2.52653
O         31.78100        33.32242         2.69415
H         32.31958        34.05801         3.07111
O         49.12703        42.16480        -1.70538
H         49.92109        42.60808        -2.07376
O         41.28782        27.18881         1.47513
H         40.68007        27.51524         2.18233
O         46.00461        30.70389         1.80896
H         45.58512        29.82534         1.95876
O         41.49170        48.91189         1.29052
H         41.97396        48.22869         1.81250
O         39.61289        29.12877         2.15575
H         39.10984        29.75398         2.73084
O         44.09167        35.36928        -1.41358
H         44.04141        36.31029        -1.68180
O         45.26041        28.10809        -3.15716
H         45.06660        27.38619        -3.78913
O         47.99914        41.75733         1.74213
H         47.26574        41.26960         2.17354
O         33.44356        35.41029        -0.93996
H         33.90768        34.79101        -1.54094
O         40.93283        39.66336        -1.11622
H         40.60675        38.77697        -1.38563
O         46.66513        35.17866         2.24549
H         45.99377        34.54834         2.59450
O         45.02213        41.19451        -1.54379
H         45.86606        40.79852        -1.88835
O         32.23942        41.38798        -1.98446
H         32.21561        42.29484        -2.38784
O         42.60259        35.49311         1.96121
H         43.30324        35.93153         2.48866
O         32.45506        40.58524         1.52379
H         32.80922        39.86614         2.10074
O         41.61436        42.16958        -1.78852
H         41.66423        41.21039        -2.00853
O         45.74325        31.80000        -1.65531
H         45.11675        32.35923        -2.16142
O         37.63127        40.70979         2.00855
H         37.96038        39.90552         2.48577
O         34.16547        39.27378        -1.46778
H         33.31144        38.97369        -1.86874
O         33.18842        35.71573         2.67889
H         33.49114        36.59923         3.00533
O         34.94763        40.58847         1.86263
H         35.83799        40.81527         2.23801
O         38.73544        38.23207         2.18245
H         39.56910        38.60503         2.57319
O         38.68711        46.61887         1.13370
H         37.90498        47.13865         1.41433
