         294
 CSIRO Nanostructure Databank - Neutral Graphene Oxide Data Set
C          1.34391         2.16620        -1.05080
C          1.16214         3.31545        -0.33435
C          2.64031         1.61705        -1.26888
C          2.28542         3.98798         0.35754
C          1.36945         6.25283        -0.54836
C          1.42064         7.58150        -0.74188
C          2.31175         5.52671         0.35125
C          2.23629         8.47859         0.16569
C          1.58024        10.60570        -1.10200
C          1.60107        12.03134        -1.18847
C          2.45929         9.91325        -0.30677
C          2.60176        12.81386        -0.60873
C          1.50463        14.98946        -1.19360
C          1.63909        16.26459        -1.63540
C          2.63152        14.22625        -0.70088
C          3.00964        16.86950        -1.74583
C          3.05337        18.38148        -1.80557
C          3.77966         2.16641        -0.67059
C          3.51954         3.08456         0.51580
C          5.05366         1.75546        -1.14628
C          5.11084         4.56218        -0.31653
C          3.58943         6.29676         0.65747
C          3.59288         7.79172         0.51199
C          4.84386         5.50219         0.64894
C          4.80624         8.67858         0.13510
C          3.40026        10.74097         0.56105
C          3.81835        12.07863        -0.07372
C          4.68362         9.97071         0.93366
C          4.70241        12.89347         0.89564
C          3.83190        14.95079        -0.32432
C          3.93532        16.28362        -0.71148
C          4.92968        14.27792         0.34223
C          5.18654        17.06168        -0.46311
C          3.99379        19.13037        -1.21440
C          4.93058        18.56407        -0.16887
C          6.29118         2.44101        -1.03970
C          6.39120         3.78329        -0.31890
C          7.47340         1.87769        -1.51347
C          7.50434         4.66286        -1.05118
C          6.41069         6.93568        -0.69110
C          6.19040         8.06017         0.14951
C          7.53069         6.08457        -0.50792
C          7.27651         8.57363         0.88153
C          5.91202        10.67188         1.45954
C          5.98476        12.14731         1.26286
C          7.19165         9.84167         1.73410
C          7.18550        12.83071         1.36146
C          6.13110        14.94219         0.62518
C          6.09587        16.45546         0.61722
C          7.25399        14.24920         1.12775
C          7.44024        17.11015         0.43734
C          6.26288        19.26541        -0.04884
C          7.45438        18.59885         0.26829
C          8.75133         2.49619        -1.19798
C          8.78357         3.89518        -0.92785
C          9.89485         1.69785        -1.06097
C          9.87656         4.43817        -0.12939
C          8.58099         6.58854         0.28256
C          8.50567         7.87204         0.86903
C          9.89777         5.90792         0.13670
C          9.67935         8.45070         1.59932
C          8.49040        10.63984         1.68345
C          8.44526        12.15458         1.88401
C          9.65737         9.93777         1.79513
C          9.70884        12.82689         1.36496
C          8.50533        15.00085         1.54189
C          8.63448        16.38160         0.91546
C          9.77208        14.21761         1.24360
C          9.84515        17.21085         1.32169
C          8.68206        19.26188         0.39563
C          9.97549        18.49513         0.45265
C         11.04165         2.06947        -0.14453
C         11.04981         3.57464         0.20857
C         12.38579         1.50452        -0.53855
C         12.38385         4.17908         0.65238
C         11.13561         6.52072         0.68256
C         11.00396         7.72037         1.58457
C         12.47727         5.76823         0.60415
C         12.30634         8.42227         1.89514
C         10.95374        10.65440         1.95874
C         10.97350        12.10873         1.61543
C         12.27908         9.94088         1.99055
C         12.22279        12.67369         1.03183
C         10.99637        14.91051         1.06349
C         11.12215        16.36877         1.23411
C         12.21431        14.15587         0.74912
C         12.42121        17.04264         0.77563
C         11.21717        19.32377         0.86248
C         12.44211        18.50079         0.47744
C         13.57305         2.13920        -0.35016
C         13.60600         3.63334        -0.10346
C         14.82858         1.59626        -0.83908
C         14.88595         4.15967         0.56389
C         13.55939         6.23724         1.61542
C         13.56758         7.73756         1.61267
C         14.89249         5.55382         1.15793
C         14.75955         8.53736         1.21908
C         13.52308        10.68611         1.69170
C         13.51984        11.98744         1.23295
C         14.80271         9.91135         1.94829
C         14.71963        12.71500         0.86423
C         13.50693        14.82858         0.49996
C         13.51080        16.18512         0.27078
C         14.71647        14.03007         0.40863
C         14.58612        16.78124        -0.54381
C         13.51475        19.07157        -0.11485
C         14.61073        18.26800        -0.70860
C         15.99688         2.31315        -0.82047
C         16.20776         3.54175         0.04990
C         17.19871         1.82281        -1.44939
C         17.02730         4.62544        -0.67165
C         16.11991         6.38385         0.90296
C         16.10120         7.81592         1.26683
C         17.18816         5.86274         0.21989
C         17.26499         8.52686         1.32456
C         16.04421        10.61912         1.44900
C         16.01497        12.00138         0.90885
C         17.33624         9.95509         1.86593
C         17.30338        12.80291         0.89645
C         15.95110        14.63437        -0.10620
C         15.82587        15.94174        -0.88329
C         17.17068        14.00170        -0.03381
C         17.10647        16.77558        -0.60867
C         15.88059        18.90417        -1.12069
C         17.05458        18.21300        -1.15486
C         18.33434         2.58504        -1.54607
C         18.36257         4.07222        -1.23933
C         19.58347         2.01976        -2.00740
C         19.62452         4.42939        -0.45370
C         18.47273         6.66257         0.10158
C         18.53633         7.79657         1.10257
C         19.71257         5.78615         0.20377
C         19.85127         8.46519         1.32210
C         18.54979        10.68454         1.32625
C         18.50600        11.89524         0.70406
C         19.84015         9.95349         1.52549
C         19.80542        12.41598         0.08071
C         18.39390        14.54022        -0.70992
C         18.33446        16.00184        -1.19567
C         19.73200        13.79525        -0.59352
C         19.45151        16.96120        -0.81462
C         18.24084        18.79923        -1.75698
C         19.44427        18.13202        -1.76331
C         20.78228         2.63019        -1.76287
C         20.87731         3.83342        -0.96897
C         22.08157         4.43945        -0.68206
C         21.04115         6.43331         0.31510
C         21.20214         7.79534         0.99698
C         22.15465         5.71290        -0.03316
C         22.16253         8.74528         0.31632
C         21.09491        10.73760         1.33956
C         20.87951        12.26003         1.17902
C         22.18672        10.06018         0.59481
C         22.14386        13.01242         0.90637
C         21.03937        14.49618        -0.73080
C         21.26246        15.66984        -1.54637
C         22.14494        14.09711         0.07920
C         20.87405        15.88859        -2.86477
C         20.41116        18.30711        -2.82732
C         20.98834        17.21492        -3.42421
O          3.56348         7.18128         1.82886
O         19.22858         7.64811         2.39237
O         11.01485        11.67593         3.03744
O         10.71572         6.78409        -0.72312
O         10.03912         3.78754         1.25522
O          4.06971         2.87540         1.59465
O         10.11100         7.60018         2.72092
O         11.99061        13.12848        -0.32926
O          8.30634        16.37446        -0.51332
O         19.90884        17.02104         0.33264
O          4.87395        10.07608         2.35955
O         18.90260        13.68510        -1.79715
O         20.70351        10.31307         2.68105
O         16.03755        10.84405         0.00722
O          1.81444         4.78320         1.49032
O         12.13763        16.76772         2.20521
O         14.03813        17.38213        -1.78285
O         15.02644         4.34759         2.00000
O         12.32820         9.11602         3.21334
O         19.52007         4.56378         0.98652
O          7.14681         9.39098         3.10980
H          6.19816         9.26472         3.34626
O          5.92230        17.04938        -1.72806
H          6.46409        16.23043        -1.76046
O         15.72978        15.58551        -2.27722
H         15.08965        16.22337        -2.68371
O         22.14612        16.58869        -1.03076
H         22.08146        16.59512        -0.05278
O         17.21748        16.84188         0.81808
H         18.13739        17.10970         1.05827
O          7.07004         4.69513        -2.45581
H          7.86450         4.84434        -3.01126
O          8.42882        12.40471         3.33402
H          9.27872        12.02831         3.68217
O          4.21825        18.75522         1.08050
H          4.81353        18.45891         1.80950
O          8.46269        15.16672         2.99081
H          8.43325        14.24717         3.37547
O         16.19692         5.04915        -1.78480
H         16.79397         5.25766        -2.54163
O         20.31434        12.79076         2.40579
H         20.36667        12.05704         3.07198
O         21.82189         7.50495         2.27661
H         21.11157         7.15812         2.86299
O         17.46978         9.87184         3.29341
H         18.17096         9.20990         3.48729
O         11.22997        19.68850         2.23372
H         11.03318        18.88523         2.77107
O          4.37163         4.61805        -1.50953
H          4.75045         3.96230        -2.13326
O         14.49147         8.79602        -0.19871
H         14.25014         7.93361        -0.61634
O          4.68754        11.81641        -1.19900
H          4.37989        10.99932        -1.65412
O          1.45196         8.58533         1.36847
H          1.82236         9.32941         1.90563
O          9.62614        17.61048         2.68729
H          9.35469        16.80475         3.19341
O          3.97811        13.11964         2.16248
H          4.63984        13.40812         2.82686
O         12.52492         3.70657         2.00062
H         11.63280         3.73191         2.41682
O         16.99269         3.06646         1.15282
H         16.61597         3.45769         1.97728
O          2.61926        10.96731         1.75064
H          3.13178        11.57799         2.33928
O         10.67577         1.34432         1.07039
H          9.97888         1.89186         1.50753
O         18.26153        16.01167        -2.62270
H         17.41615        15.56331        -2.87780
O         13.09327         6.24557        -0.61647
H         12.39354         6.27501        -1.31246
O          5.57238         5.57660         1.79389
H          5.10287         6.20329         2.39472
O         13.59383         4.11109        -1.47729
H         14.49480         4.45136        -1.71406
O          6.83045         3.53306         1.01223
H          6.05909         3.19601         1.52652
O          4.52979         9.10809        -1.23490
H          4.73444         8.34167        -1.82669
O         18.52233         7.30672        -1.20171
H         18.47674         6.60098        -1.89005
O         13.26359         5.89613         2.97056
H         13.60839         4.98378         3.12641
O         18.56034         4.75159        -2.53195
H         19.27181         4.27218        -3.01131
O          5.58918         6.77697        -1.77072
H          5.91480         5.99115        -2.28936
O         20.17541        11.50055        -0.97734
H         19.61339        11.72592        -1.75309
O         17.48756        13.36116         2.23118
H         18.45735        13.36928         2.43307
O          3.55176        16.43005        -3.04444
H          4.50369        16.69719        -3.03034
O         10.27844        18.09056        -0.90913
H          9.53820        17.51092        -1.21981
O         14.93266         9.69842         3.35340
H         14.06492         9.36698         3.69500
O          5.63975        16.80266         1.95570
H          4.84604        16.26087         2.15236
H          0.48131         1.68280        -1.53058
H          0.15293         3.72732        -0.19335
H          2.75595         0.79914        -1.99661
H          0.66773         5.64957        -1.14507
H          0.72674         8.04361        -1.46045
H          0.78342        10.07494        -1.64396
H          0.77569        12.51661        -1.72936
H          0.51345        14.51177        -1.20570
H          0.76897        16.82160        -2.01335
H          2.34819        18.85340        -2.50879
H          5.05219         0.86841        -1.80483
H          4.00944        20.22042        -1.37390
H          7.46359         0.85755        -1.92813
H          6.28903        20.36019        -0.16744
H          9.79588         0.62098        -1.27605
H          8.71849        20.35342         0.25577
H         12.38507         0.45803        -0.88393
H         11.22844        20.27085         0.26347
H         14.80425         0.62406        -1.35827
H         13.53140        20.15935        -0.28630
H         17.21788         0.78244        -1.81252
H         15.84896        19.95367        -1.45338
H         19.55964         1.03728        -2.50235
H         18.10688        19.70279        -2.37393
H         21.71655         2.16351        -2.10815
H         23.01578         3.97261        -1.02700
H         23.15014         6.15296         0.12235
H         22.95365         8.31181        -0.31444
H         22.94593        10.70615         0.12633
H         23.04676        12.75123         1.47641
H         23.08406        14.65611        -0.05423
H         20.50706        15.05888        -3.48478
H         20.42229        19.27568        -3.35189
H         21.41572        17.33495        -4.43445
