         424
 CSIRO Nanostructure Databank - Neutral Graphene Oxide Data Set
C          1.25946         3.29652         0.17518
C          0.06476         3.96925         0.27291
C          1.18098         6.15428         0.19963
C          0.01549         5.38469         0.26397
C          1.15831         7.60780         0.23400
C         -0.04908         8.34175         0.22293
C          1.14785        10.46832         0.33969
C         -0.05362         9.72782         0.25477
C          1.16405        11.91473         0.40270
C          0.00723        12.66456         0.16703
C          1.16336        14.79604         0.48140
C          0.03432        14.07120         0.13506
C          1.20648        16.23039         0.35782
C          0.02598        16.96448         0.08494
C          1.26044        19.06081         0.04942
C          0.05147        18.33473        -0.06688
C          1.28828        20.49391        -0.09909
C          0.12313        21.21169        -0.48094
C          1.28497        23.34466        -0.26663
C          0.12123        22.58487        -0.56051
C          1.23939        24.76846        -0.23307
C          0.07416        25.50399        -0.47429
C          1.27333        27.64988        -0.39130
C          0.07849        26.89921        -0.50501
C          1.28371        29.08800        -0.57897
C          0.08623        29.81979        -0.71413
C          1.27782        31.93740        -0.90258
C          0.08733        31.20466        -0.88231
C          1.29308        33.36159        -1.21355
C          0.14198        34.05398        -1.65928
C          1.42843        36.09951        -1.94595
C          0.20132        35.40235        -1.98249
C          1.49938        37.51549        -2.23699
C          3.68564         3.36785        -0.20217
C          2.49695         4.01984         0.05373
C          3.64349         6.21006         0.16739
C          2.45366         5.48029         0.13816
C          3.62918         7.63078         0.24016
C          2.38487         8.33361         0.28161
C          3.61175        10.47673         0.54889
C          2.38040         9.76117         0.37654
C          3.59072        11.90048         0.79535
C          2.39876        12.59878         0.69860
C          3.65837        14.79897         0.84506
C          2.34748        14.07047         1.07573
C          3.67080        16.21839         0.70250
C          2.43866        16.93800         0.48684
C          3.69072        19.08187         0.51963
C          2.46302        18.35449         0.34075
C          3.70121        20.50869         0.46193
C          2.49164        21.21005         0.13824
C          3.72152        23.33882         0.22335
C          2.50447        22.63741         0.03760
C          3.74047        24.79945        -0.15962
C          2.46209        25.51217         0.25626
C          3.71830        27.66248        -0.10608
C          2.49507        26.97359        -0.14195
C          3.74768        29.08328        -0.33460
C          2.52827        29.78216        -0.58249
C          3.72787        31.92672        -0.64635
C          2.53129        31.22700        -0.72005
C          3.67308        33.41000        -0.43521
C          2.52096        34.07002        -1.14691
C          3.93662        36.07176        -1.72257
C          2.59631        35.40723        -1.54443
C          3.88784        37.58097        -1.69093
C          2.65360        38.22424        -2.07149
C          6.22361         3.43939        -0.45802
C          4.91416         4.17297        -0.53882
C          6.16320         6.28601        -0.05894
C          4.95076         5.45545         0.29064
C          6.09786         7.66850        -0.01089
C          4.85174         8.36731         0.23503
C          6.10757        10.47798         0.66406
C          4.82775         9.76425         0.45112
C          6.12939        11.90517         1.10393
C          4.80898        12.62809         1.36451
C          6.09732        14.79017         0.99268
C          4.85546        14.09654         0.98001
C          6.11847        16.21327         0.96734
C          4.89549        16.93307         0.81301
C          6.06515        19.11761         1.12456
C          4.89472        18.37889         0.78796
C          6.06777        20.52345         1.12636
C          4.89684        21.23344         0.75191
C          6.08662        23.44074         0.89335
C          4.90118        22.67902         0.61596
C          6.13574        24.84749         0.66110
C          4.96698        25.55535         0.28497
C          6.17563        27.69969         0.30681
C          4.95643        26.95816         0.16569
C          6.17509        29.12426         0.11101
C          4.98774        29.78222        -0.25051
C          6.20141        31.99591        -0.12680
C          5.05044        31.21645        -0.71550
C          6.15388        33.40642        -0.15139
C          5.00125        34.10446        -0.55867
C          6.23089        36.22689        -0.72058
C          5.04682        35.48017        -0.88564
C          6.26975        37.63461        -1.06317
C          5.04336        38.28491        -1.47740
C          8.65644         3.49240        -0.75591
C          7.40730         4.15136        -0.51744
C          8.56258         6.33777        -0.59495
C          7.38401         5.61382        -0.40528
C          8.58343         7.76075        -0.47826
C          7.29718         8.45146        -0.34745
C          8.60005        10.61405         0.16679
C          7.31457         9.93783        -0.02039
C          8.62057        11.97792         0.61867
C          7.38415        12.67815         0.92310
C          8.58350        14.81052         1.30243
C          7.34285        14.06155         1.06755
C          8.58817        16.27820         1.27139
C          7.35092        16.93453         1.17670
C          8.63696        19.14538         1.62056
C          7.27520        18.35763         1.49563
C          8.59241        20.59582         1.44602
C          7.24741        21.25709         1.75054
C          8.59017        23.50244         1.35565
C          7.25410        22.76845         1.47844
C          8.59359        24.91044         0.93208
C          7.37791        25.58953         0.76310
C          8.62296        27.73737         0.68853
C          7.38513        27.01064         0.56307
C          8.61069        29.18296         0.56508
C          7.41317        29.86492         0.27156
C          8.63064        32.03817         0.33297
C          7.39467        31.30341         0.18587
C          8.63557        33.45540         0.26070
C          7.33028        34.19878         0.35236
C          8.58952        36.31498        -0.06840
C          7.40436        35.60462        -0.19038
C          8.63569        37.73408        -0.38821
C          7.44099        38.35225        -0.89803
C         10.94928         3.42832        -1.55340
C          9.83126         4.17072        -1.12471
C         11.04101         6.37295        -0.52861
C          9.81532         5.68975        -1.12403
C         11.04389         7.80778        -0.54876
C          9.78262         8.50965        -0.47715
C         11.03585        10.62601        -0.09914
C          9.78818         9.92401        -0.16212
C         11.04854        12.03314         0.15037
C          9.84068        12.68369         0.55891
C         11.07947        14.89846         0.74247
C          9.91499        14.07030         1.03921
C         11.07928        16.26862         0.98904
C          9.83983        16.98670         1.27168
C         11.06013        19.14405         1.08479
C          9.85890        18.39845         1.31057
C         11.04336        20.56259         1.10344
C          9.79605        21.29273         1.25003
C         11.04349        23.43981         1.04218
C          9.83246        22.73051         1.22375
C         11.04714        24.87956         1.03941
C          9.84132        25.61266         0.95320
C         11.06112        27.80252         1.31763
C          9.81970        27.04665         0.91845
C         11.06567        29.23912         0.88175
C          9.85900        29.90789         0.64732
C         11.08559        32.06224         0.51299
C          9.86082        31.34041         0.47068
C         11.08272        33.48664         0.43355
C          9.83767        34.17834         0.30432
C         11.01018        36.34049         0.37072
C          9.82944        35.62558         0.24478
C         10.96070        37.84097         0.54672
C          9.78403        38.45763        -0.15091
C         13.42209         3.46953        -1.51701
C         12.22807         3.95996        -2.00905
C         13.50543         6.36678        -0.49365
C         12.24238         5.73432        -0.18285
C         13.50661         7.80596        -0.53145
C         12.26233         8.51165        -0.42557
C         13.49162        10.65294        -0.30613
C         12.26474         9.93783        -0.28832
C         13.48850        12.06697        -0.12782
C         12.27287        12.74691         0.09144
C         13.54915        14.80747         0.71904
C         12.27950        14.25797         0.08327
C         13.56352        16.31669         0.68610
C         12.31647        17.02171         0.86728
C         13.52900        19.17888         0.84829
C         12.30029        18.43209         0.91778
C         13.51877        20.56127         0.85388
C         12.27349        21.29280         0.95025
C         13.50426        23.42757         0.54427
C         12.26866        22.69884         0.91356
C         13.51676        24.93149         0.58952
C         12.35303        25.59928         1.28235
C         13.53291        27.76711         0.87425
C         12.34196        27.07858         1.00473
C         13.52807        29.21024         0.84637
C         12.32395        29.92424         0.82607
C         13.53187        32.09284         0.71164
C         12.33296        31.37283         0.66810
C         13.54028        33.51554         0.63040
C         12.30006        34.21760         0.51085
C         13.46486        36.38887         0.53440
C         12.27104        35.65657         0.47887
C         13.46427        37.82097         0.29102
C         12.25796        38.50279         0.20177
C         15.93181         3.52018        -1.15825
C         14.69978         4.27251        -1.59963
C         15.88930         6.36040        -0.96950
C         14.66329         5.64883        -0.86816
C         15.92759         7.79172        -0.88866
C         14.71088         8.52080        -0.70113
C         15.91495        10.68354        -0.74122
C         14.72081         9.96448        -0.59346
C         15.95307        12.09795        -0.52489
C         14.74639        12.78892        -0.17131
C         15.99879        14.87548         0.09806
C         14.78537        14.15831         0.14158
C         16.01248        16.28967         0.35625
C         14.77324        16.97950         0.62417
C         16.02616        19.13318         0.38933
C         14.83941        18.43570         0.99704
C         15.89838        20.58903         0.03426
C         14.85172        21.28200         0.90923
C         15.99334        23.44565         0.44178
C         14.80104        22.75242         0.56850
C         16.01959        24.91238         0.48058
C         14.81357        25.63810         0.61227
C         16.03383        27.74857         0.69660
C         14.81424        27.04842         0.74527
C         16.06223        29.20806         1.08725
C         14.82077        29.95170         0.59265
C         16.07045        32.12323         0.81773
C         14.79393        31.38244         1.15204
C         16.03752        33.53938         0.71530
C         14.77438        34.22138         0.71716
C         16.03660        36.45031         0.48221
C         14.73076        35.68471         0.76205
C         15.93090        37.83579        -0.02246
C         14.69638        38.49272         0.00608
C         18.31584         3.47692        -0.59624
C         17.12853         4.18278        -1.08486
C         18.26045         6.39165        -1.42906
C         17.10236         5.64587        -1.23268
C         18.36331         7.78475        -1.16067
C         17.15256         8.49151        -1.01219
C         18.44703        10.66097        -1.11753
C         17.10360         9.96263        -1.33168
C         18.45288        12.12839        -0.82852
C         17.17618        12.82210        -0.56904
C         18.46436        14.89919        -0.14827
C         17.21369        14.19129        -0.22397
C         18.45657        16.30138         0.02625
C         17.22472        17.00043         0.23787
C         18.44599        19.18214        -0.06632
C         17.20777        18.45543         0.21313
C         18.43484        20.58016        -0.14821
C         17.22291        21.32218         0.06246
C         18.52890        23.38956         0.40465
C         17.23222        22.69055         0.28530
C         18.52929        24.91633         0.52077
C         17.24073        25.63285         0.47456
C         18.50316        27.78583         0.38676
C         17.25239        27.04779         0.52787
C         18.49335        29.22758         0.38832
C         17.30346        29.95517         0.65439
C         18.50879        32.08297         0.37628
C         17.29197        31.38082         0.63696
C         18.57773        33.57681         0.57368
C         17.25015        34.28240         0.45914
C         18.40456        36.35253        -0.28411
C         17.24386        35.65586         0.20187
C         18.32297        37.74584        -0.61347
C         17.09626        38.45157        -0.50708
C         19.55673         3.97822        -0.32353
C         20.73880         6.23702        -0.05028
C         19.96618         5.31460        -0.71653
C         20.69855         7.65189        -0.31729
C         19.64501         8.39062        -0.83543
C         20.89486        10.63983        -0.68040
C         19.60577         9.87965        -0.49897
C         20.92053        11.99401        -0.56968
C         19.71862        12.78700        -0.43773
C         20.92833        14.92350        -0.05571
C         19.71387        14.17193        -0.21979
C         20.92004        16.28848         0.01083
C         19.69797        17.04193        -0.00275
C         20.91930        19.21458        -0.07957
C         19.68652        18.45040        -0.07118
C         20.93512        20.55095        -0.26122
C         19.68309        21.31763        -0.58916
C         20.88272        23.49988        -0.26488
C         19.74363        22.75322        -0.11245
C         20.90228        24.91602        -0.09692
C         19.75844        25.64023         0.16838
C         20.89562        27.83400        -0.11093
C         19.71131        27.09517         0.14306
C         20.88824        29.21078        -0.14214
C         19.70044        29.94056         0.10042
C         20.87280        32.10983        -0.26843
C         19.69523        31.38168         0.08975
C         20.84257        33.48290        -0.46790
C         19.69730        34.24327        -0.19330
C         20.75225        36.36018        -0.98597
C         19.63459        35.64950        -0.48614
C         20.66923        37.72308        -1.28092
C         19.47521        38.41206        -1.10653
O          7.84831        23.42654         2.64780
O         19.39602         5.74081        -1.93380
O         15.54476        36.27825         1.84542
O          7.05416         9.48850        -1.38402
O          9.38323        14.25265         2.39033
O          6.34450        10.80631         2.08374
O         13.25119        24.26965        -0.67270
O          7.88436        18.66707         2.77441
O         18.67947        24.05645         1.70637
O         18.71286        11.55694        -2.22366
O         15.38879        20.63955        -1.33167
H         16.08143        20.28217        -1.92564
O         19.28384         9.92898         0.93798
H         19.96926         9.41701         1.41742
O          4.75736         4.59083        -1.93719
H          4.78107         3.78589        -2.49545
O         19.60648        21.38901        -2.06171
H         19.68488        20.47171        -2.39997
O         15.33603        21.18543         2.29052
H         14.75627        21.73693         2.85748
O          7.02400        21.09946         3.17775
H          7.51395        21.83082         3.62099
O         15.11212        18.42971         2.44951
H         15.29332        19.37337         2.69592
O         10.75090        38.07068         2.00326
H         11.56862        37.77492         2.45839
O         14.93266         4.65005        -2.98387
H         14.09980         5.05659        -3.31557
O          4.31990        35.73776        -3.11143
H          5.15145        36.22022        -3.30761
O         14.68455        31.31526         2.60282
H         14.84442        32.21530         2.95559
O         12.61669        25.46799         2.72166
H         11.98510        26.08260         3.16977
O         16.05327        29.19734         2.54027
H         16.86061        28.73204         2.84311
O         14.97064        30.03498        -0.84859
H         14.15534        30.43513        -1.21795
O         12.29375        14.67458        -1.31642
H         11.58714        14.18690        -1.78844
O          2.15133        14.09437         2.52985
H          2.93056        13.62979         2.92483
O          2.40911        25.48131         1.71362
H          1.58417        25.93011         1.99353
O         13.50346        14.42695         2.12398
H         14.22134        14.90315         2.59177
O          9.83237         6.06497        -2.56150
H          9.71621         7.03952        -2.60869
O         12.26215         4.58943         0.53926
H         11.35199         4.24863         0.66088
O          3.34959        33.57037         1.00604
H          2.48875        33.12493         1.16115
O          7.07715        34.35571         1.80036
H          7.77416        34.94848         2.15524
O         16.84604         9.96107        -2.77670
H         17.34948        10.72865        -3.14335
O         11.02262        27.82621         2.81614
H         11.68189        28.49535         3.10465
O          3.76522        24.82911        -1.62378
H          4.58274        24.37764        -1.92051
O         18.96159        33.74827         2.00834
H         18.94166        34.71187         2.19523
O         12.24886         5.02127        -2.86068
H         11.32483         5.36343        -3.00741
O          5.08267         5.05530         1.68534
H          5.05165         5.86505         2.23621
O          5.36496        31.13650        -2.16664
H          4.64132        30.62716        -2.59114
O          4.60236        12.63331         2.81333
H          5.04657        11.82217         3.15798
H          1.28265         2.19734         0.15717
H         -0.87702         3.40712         0.34759
H         -0.96801         5.86919         0.33082
H         -1.01229         7.81589         0.17522
H         -1.02075        10.24802         0.23881
H         -0.93410        12.16146        -0.09051
H         -0.87086        14.58366        -0.21825
H         -0.94074        16.44997         0.01389
H         -0.89446        18.85629        -0.25981
H         -0.80500        20.67420        -0.71300
H         -0.81017        23.09307        -0.84199
H         -0.87184        24.99181        -0.69842
H         -0.87049        27.40890        -0.71588
H         -0.88220        29.30395        -0.68815
H         -0.87750        31.71597        -1.00139
H         -0.82074        33.53116        -1.74009
H         -0.71095        35.93181        -2.29346
H          0.57442        38.03098        -2.53517
H          3.69040         2.27666        -0.35453
H          2.65902        39.31509        -2.21720
H          6.23941         2.34275        -0.56260
H          5.04588        39.38159        -1.57714
H          8.65235         2.39242        -0.81000
H          7.45773        39.42958        -1.12110
H         10.91974         2.34454        -1.35099
H          9.81118        39.53448        -0.37696
H         13.38370         2.61491        -0.82597
H         12.26147        39.58359        -0.00446
H         15.87378         2.44013        -0.95219
H         14.65007        39.54819        -0.30030
H         18.12671         2.43253        -0.29554
H         17.05270        39.49864        -0.84069
H         20.26961         3.34946         0.23330
H         21.34822         5.91341         0.80687
H         21.52392         8.22847         0.13588
H         21.83649        10.08764        -0.81697
H         21.89254        12.50783        -0.60838
H         21.89141        14.39573        -0.03650
H         21.88258        16.81284         0.07481
H         21.87116        18.69602         0.09925
H         21.89629        21.08400        -0.25001
H         21.80279        23.02968        -0.63921
H         21.85065        25.42723        -0.30861
H         21.84222        27.31017        -0.29390
H         21.83120        29.73171        -0.34884
H         21.80531        31.57772        -0.49273
H         21.73924        33.96303        -0.88355
H         21.71230        35.84912        -1.13435
H         21.55647        38.25004        -1.65893
H         19.40985        39.48128        -1.35326
