         334
 CSIRO Nanostructure Databank - Neutral Graphene Oxide Data Set
C         30.47424        57.14310         0.08449
C         30.45314        58.55054        -0.01900
C         29.30147        59.23766        -0.49289
C         30.41646        61.39247        -0.34660
C         29.34363        60.62810        -0.73334
C         32.81786        52.85730         0.94196
C         32.79357        54.33800         1.21843
C         31.60790        55.05884         0.65730
C         32.88299        57.18475         0.68658
C         31.63837        56.43832         0.50272
C         32.86932        58.62841         0.50991
C         31.63857        59.29603         0.27315
C         32.85667        61.44747         0.01518
C         31.56809        60.79489         0.40251
C         35.24380        48.61489         0.42932
C         35.19981        50.00200         0.68171
C         34.00569        50.72396         0.61954
C         35.24591        52.89249         0.35710
C         33.97521        52.15691         0.72354
C         35.25391        54.34500         0.75950
C         34.09199        55.04420         0.88557
C         35.35163        57.19493         0.71038
C         34.09105        56.50212         0.84880
C         35.37727        58.70047         0.83736
C         34.07464        59.35846         0.47924
C         35.30241        61.40387        -0.17769
C         34.06801        60.75550         0.10623
C         37.65090        44.27485         0.39753
C         37.53762        45.63292         0.75069
C         36.37864        46.41397         0.48860
C         37.60225        48.47770         1.12714
C         36.41319        47.81589         0.63746
C         37.66794        49.93501         0.59272
C         36.47124        50.72096         1.12924
C         37.72038        52.83765         0.52906
C         36.52022        52.17475         0.70682
C         37.77598        54.27921         0.44993
C         36.57651        55.03723         0.95252
C         37.79134        57.15120         0.30584
C         36.53910        56.49556         0.58178
C         37.77678        58.59609         0.04511
C         36.57985        59.32678         0.18113
C         37.73611        61.35483        -0.58170
C         36.54094        60.70813        -0.18303
C         40.20111        40.14378        -0.09583
C         40.16840        41.52554         0.19036
C         38.96065        42.23858         0.10265
C         40.07587        44.25030         1.00731
C         38.88213        43.58272         0.51370
C         39.83330        45.51244         1.66511
C         38.62310        46.23535         1.48070
C         40.40086        48.63334         0.14367
C         38.51298        47.64374         1.82138
C         40.29533        50.02313         0.74873
C         38.97499        50.72244         0.58870
C         40.21148        52.84433         0.20202
C         38.98209        52.09356         0.48047
C         40.21528        54.23493         0.05130
C         38.97198        54.96998         0.25273
C         40.27121        57.18225         0.15427
C         38.96981        56.41620         0.21133
C         40.16018        58.41577        -0.74054
C         38.94508        59.24209        -0.40864
C         40.18220        61.29719        -0.99604
C         38.94960        60.64173        -0.67606
C         42.63428        35.97069        -0.84607
C         42.63463        37.34164        -0.46706
C         41.43157        38.04957        -0.39538
C         42.63664        40.12196         0.23762
C         41.40866        39.43421        -0.09210
C         42.60719        41.48349         0.57968
C         41.39083        42.22108         0.52800
C         42.67704        44.31935         0.70937
C         41.36435        43.62666         0.79223
C         42.75961        45.75621         0.44676
C         41.70560        46.52188        -0.06558
C         42.74215        48.63182         0.89158
C         41.56850        47.91302         0.28154
C         42.75152        50.04981         0.31815
C         41.50435        50.75124         0.22054
C         42.61652        52.78758        -0.55619
C         41.43673        52.11395        -0.00369
C         42.66721        54.25665        -0.50813
C         41.46126        54.95348        -0.22446
C         42.67604        57.07241        -0.51195
C         41.48370        56.37014        -0.24093
C         42.66754        58.51779        -0.67172
C         41.44762        59.20488        -0.73758
C         42.65947        61.30746        -1.09841
C         41.41356        60.61235        -0.96016
C         45.07835        33.26058        -1.75242
C         43.83794        33.91863        -1.47514
C         45.14861        35.87079        -0.68078
C         43.81687        35.24704        -1.03995
C         45.11765        37.36729        -0.46786
C         43.88433        38.04625        -0.22891
C         45.13122        40.09851         0.39586
C         43.88043        39.40327         0.15010
C         45.12869        41.41742         0.84698
C         43.82503        42.13035         1.19333
C         45.14518        44.32413         1.18994
C         43.86047        43.61739         0.89694
C         45.25170        45.77505         0.90527
C         44.00381        46.48416         0.67543
C         45.24264        48.61263         0.79641
C         44.00409        47.86187         0.65448
C         45.21202        50.08078         0.43491
C         43.93682        50.68249         0.00675
C         45.22899        52.73206        -0.91588
C         43.92295        51.99494        -0.64668
C         45.16823        54.22622        -0.65759
C         43.91613        54.93102        -0.62400
C         45.12401        57.09792        -0.75970
C         43.91517        56.36956        -0.62341
C         45.12148        58.49384        -0.86897
C         43.90386        59.22668        -0.84470
C         45.13319        61.49041        -1.15111
C         43.87119        60.65046        -1.03531
C         46.24958        33.95615        -1.82328
C         47.53642        36.09733        -1.34357
C         46.22118        35.45939        -1.68706
C         47.56826        37.37108        -0.79310
C         46.32880        38.04795        -0.39930
C         47.60460        40.06488         0.16873
C         46.37377        39.41090         0.07184
C         47.70232        41.37859         0.81796
C         46.39148        42.06749         1.23571
C         47.82314        44.23472         1.62847
C         46.41329        43.55908         1.47329
C         47.75996        45.83625         1.45278
C         46.46409        46.43855         0.92275
C         47.66281        48.56241         0.38210
C         46.50504        47.87233         0.68486
C         47.68869        49.99370         0.13642
C         46.46983        50.73151         0.05752
C         47.66811        52.80194        -0.35047
C         46.45466        52.07423        -0.32870
C         47.63777        54.23050        -0.49634
C         46.39338        54.90944        -0.62595
C         47.56166        57.10911        -0.16184
C         46.44675        56.38677        -0.92466
C         47.65637        58.54109        -0.64167
C         46.41477        59.18649        -1.11725
C         47.68829        61.38280        -0.98307
C         46.42409        60.69761        -1.25325
C         48.79294        38.08457        -0.69667
C         50.04233        40.13531        -0.22835
C         48.82733        39.42137        -0.26283
C         50.10169        41.50972         0.11934
C         48.92235        42.18718         0.59093
C         50.16468        44.28174         0.63021
C         48.94451        43.56989         0.82678
C         50.17322        45.72213         0.61675
C         48.95968        46.40832         0.72864
C         50.19471        48.50037        -0.08607
C         48.89558        47.77222         0.21233
C         50.21762        49.99574        -0.33542
C         48.89379        50.68955        -0.09522
C         50.14512        52.83015        -0.16907
C         48.89318        52.09693        -0.18910
C         50.11731        54.25355        -0.28358
C         48.87765        54.96252        -0.39922
C         50.08816        57.08835        -0.16990
C         48.88091        56.37353        -0.29739
C         50.00986        58.57492         0.15302
C         48.81988        59.24122        -0.50641
C         50.11724        61.34914        -0.65948
C         48.86276        60.67885        -0.74213
C         51.32355        42.20690         0.03631
C         52.61114        44.29940         0.23276
C         51.38229        43.59338         0.29266
C         52.67992        45.70806         0.40463
C         51.41712        46.43754         0.44173
C         52.64466        48.59051         0.44551
C         51.43629        47.83106         0.31204
C         52.63854        49.97871         0.36668
C         51.31281        50.69642         0.46093
C         52.58736        52.85164         0.07672
C         51.35543        52.15556         0.07430
C         52.57626        54.25536        -0.08734
C         51.34198        54.97894        -0.20201
C         52.60575        57.17589        -0.25312
C         51.31400        56.40449        -0.17779
C         52.52475        58.58233         0.33076
C         51.32159        59.32515         0.02254
C         52.56647        61.44295        -0.56450
C         51.32370        60.69767        -0.33297
C         53.88333        46.41241         0.43999
C         55.14355        48.63101         0.52993
C         53.89913        47.85710         0.85806
C         55.12688        50.00572         0.39748
C         53.85768        50.73252         0.36567
C         55.07879        52.87454         0.21011
C         53.84064        52.13208         0.24920
C         55.06219        54.25792         0.13582
C         53.81531        54.98170         0.05104
C         54.98311        57.01012         0.73708
C         53.78756        56.36025         0.18707
C         54.90380        58.43782         1.18939
C         53.62847        59.15321         0.92413
C         55.02853        61.75864        -0.17047
C         53.69973        61.26741         0.16824
C         56.34565        50.76370         0.31817
C         57.56933        52.89858         0.33597
C         56.35087        52.15507         0.26617
C         57.59357        54.29800         0.28692
C         56.33524        55.03165        -0.10590
C         57.44219        57.17709         0.59980
C         56.29481        56.43014         0.46124
C         57.39027        58.62054         0.85647
C         56.17942        59.17957         1.21153
C         57.56123        61.76005         0.13957
C         56.15857        61.35633         0.46916
C         58.75773        55.06329         0.47401
C         59.88480        57.24234         0.73643
C         58.73014        56.48850         0.55242
C         59.86237        58.67351         0.78569
C         58.62891        59.40253         0.73877
C         59.93810        61.45149         0.58733
C         58.68613        60.81316         0.55971
C         61.09861        59.36131         0.82682
C         61.13353        60.74517         0.76242
O         53.58781        60.48530         1.35422
O         56.07165        60.52527         1.59575
O         45.19907        49.65139         1.86296
O         49.46783        47.83179        -1.16647
O         45.55904        43.96201         2.58625
O         47.20320        41.34339         2.20195
O         54.78732        57.35843         2.19265
O         43.03962        52.12113        -1.81025
O         46.48403        59.82448        -2.44133
O         48.24684        43.96826         2.93061
O         32.68341        54.45627         2.69277
H         33.48448        54.04107         3.07752
O         35.55571        58.95423         2.29304
H         36.48045        58.71162         2.51563
O         37.35439        49.85516        -0.83408
H         38.05012        49.31839        -1.27333
O         45.03849        62.35751        -2.29207
H         45.21005        61.80720        -3.08563
O         52.84597        57.43353        -1.69235
H         52.91019        56.56246        -2.14027
O         36.76749        55.04549         2.43098
H         36.08268        55.64452         2.80154
O         47.22694        57.13508         1.24816
H         47.95734        57.62401         1.70056
O         39.43575        48.22747        -0.70419
H         39.65643        47.32856        -1.05063
O         45.82761        36.00285        -2.99013
H         46.49236        35.71310        -3.64904
O         47.88329        46.38178         2.78623
H         48.06345        45.56837         3.35724
O         39.96547        57.92440        -2.10375
H         39.91703        58.70271        -2.69766
O         40.73978        45.97048        -0.86238
H         40.91816        45.01437        -0.99226
O         42.66281        48.71255         2.35798
H         43.53613        49.08439         2.64318
O         39.30470        48.04952         2.81353
H         39.30921        49.03607         2.90121
O         53.84725        47.81584         2.34912
H         53.02806        47.33298         2.59401
O         46.82347        56.48620        -2.32931
H         46.18116        55.96546        -2.85534
O         50.54371        50.17738        -1.73419
H         50.02691        49.50645        -2.23431
O         56.40386        55.19510        -1.57280
H         57.29081        55.55968        -1.78056
O         36.51375        50.69024         2.58021
H         35.72018        51.15311         2.92044
O         45.46732        52.63665        -2.36303
H         44.57437        52.61450        -2.78365
O         40.51552        57.67568         1.50570
H         40.59196        56.90088         2.10105
O         43.67784        41.98078         2.64326
H         44.40296        42.52305         3.04702
O         31.33688        61.06494         1.85625
H         32.09170        60.66626         2.34125
O         35.24614        52.93907        -1.11870
H         34.37534        53.29025        -1.40182
O         57.64671        61.97230        -1.27563
H         58.58388        62.14062        -1.50483
O         40.78255        46.03818         2.46246
H         41.56730        45.45390         2.50434
O         40.46350        50.10980         2.20383
H         41.31885        49.66714         2.46788
O         45.54740        35.29444         0.59689
H         44.89795        35.58010         1.27268
O         49.68911        58.61275         1.60353
H         50.49556        58.33923         2.09265
O         50.90349        50.62493         1.85888
H         51.61285        51.02273         2.40598
H         29.56168        56.57254        -0.14508
H         28.40211        58.66217        -0.75363
H         30.42374        62.47590        -0.53529
H         28.48513        61.10557        -1.22878
H         31.88672        52.30222         1.14098
H         30.67361        54.50675         0.47626
H         32.85734        62.51097        -0.26581
H         34.31729        48.11074         0.10994
H         33.05209        50.18525         0.49599
H         35.28868        62.46575        -0.46588
H         36.79084        43.74970        -0.04146
H         35.47201        45.92737         0.10057
H         37.71490        62.42760        -0.82340
H         39.26192        39.62013        -0.32693
H         38.05634        41.73234        -0.26492
H         40.17419        62.38206        -1.17609
H         41.66718        35.48801        -1.05814
H         40.48398        37.53428        -0.61207
H         42.64564        62.39554        -1.25830
H         45.06651        32.17838        -1.95176
H         42.89355        33.37322        -1.62047
H         45.19643        62.15399        -0.24655
H         47.19022        33.45077        -2.09089
H         48.47117        35.64275        -1.71005
H         47.70135        62.48308        -0.97489
H         49.72744        37.59365        -1.00686
H         50.96781        39.62724        -0.53706
H         50.15115        62.41818        -0.91695
H         52.23456        41.66845        -0.26172
H         53.54042        43.73303         0.06988
H         52.58004        62.14266        -1.41346
H         54.83574        45.86450         0.37368
H         56.10899        48.10235         0.56010
H         55.12568        62.40607        -1.05275
H         57.30271        50.22184         0.36242
H         58.51016        52.34930         0.49686
H         57.75694        62.74964         0.66181
H         59.71956        54.55082         0.63008
H         60.86124        56.73674         0.77854
H         59.97659        62.54494         0.46426
H         62.03057        58.78261         0.89709
H         62.08948        61.28460         0.80250
