         349
 CSIRO Nanostructure Databank - Neutral Graphene Oxide Data Set
C          1.29699         2.18966        -0.18527
C          1.30262         3.56643        -0.26613
C          2.48413         1.43949        -0.04489
C          2.54963         4.30739        -0.42574
C          1.46706         6.53459        -0.76433
C          1.53958         7.92020        -0.90342
C          2.60032         5.79813        -0.39400
C          2.76538         8.58465        -0.81509
C          1.77146        10.67385        -1.85972
C          1.93166        11.84718        -2.50885
C          2.83550        10.09475        -0.95312
C          3.19808        12.54837        -2.46671
C          2.37730        14.58865        -3.63234
C          2.41717        15.93138        -3.82052
C          3.38644        13.86845        -2.88563
C          3.39931        16.76482        -3.10456
C          3.61860        18.16854        -3.50646
C          3.72959         2.07677         0.11607
C          3.83572         3.52369        -0.16392
C          4.89001         1.39064         0.48833
C          5.01151         4.24594         0.36251
C          3.82868         6.46075        -0.18941
C          3.92914         7.84870        -0.46976
C          4.93294         5.75318         0.57701
C          5.23274         8.49720        -0.50748
C          4.22043        10.59839        -1.31703
C          4.33210        11.82033        -1.94598
C          5.38484         9.81153        -0.92652
C          5.65834        12.40383        -2.33881
C          4.59486        14.57860        -2.44436
C          4.51905        16.05709        -2.37668
C          5.71851        13.91045        -2.03205
C          5.77238        16.79909        -2.10103
C          4.69717        18.85779        -3.07569
C          5.78434        18.24277        -2.32231
C          6.10480         2.07996         0.78604
C          6.08627         3.54676         0.83262
C          7.25578         1.35176         1.04730
C          7.22227         4.32303         1.49170
C          6.30812         6.36103         0.39399
C          6.43606         7.65992        -0.28845
C          7.42016         5.66618         0.80421
C          7.82053         8.31255        -0.30597
C          6.70870        10.40466        -1.13643
C          6.76990        11.57629        -1.81410
C          8.06687         9.74491        -0.81583
C          8.52423        12.77359        -1.09467
C          6.74028        14.65872        -1.15942
C          6.81843        16.14241        -1.50770
C          8.15426        14.09067        -0.94062
C          7.98502        16.91555        -1.02496
C          6.80116        19.01838        -1.82643
C          7.96815        18.41581        -1.17765
C          8.50519         1.98653         1.47900
C          8.50417         3.50181         1.66051
C          9.79021         1.30856         1.29801
C          9.80898         4.17435         1.58962
C          8.72156         6.30799         0.85605
C          8.85715         7.63347         0.47311
C          9.87937         5.57450         1.35731
C         10.07970         8.40579         0.78304
C          8.95355        10.59755         0.13952
C          9.28974        12.04255        -0.10790
C          9.91580         9.87097         1.05448
C         10.13787        12.74682         0.73107
C          9.13147        14.89556        -0.20122
C          8.77349        16.33002         0.13959
C         10.25750        14.20383         0.56048
C         10.00894        17.12306         0.48714
C          8.74859        19.21337        -0.14796
C         10.02605        18.51398         0.26029
C         10.97931         1.97198         1.53680
C         10.99056         3.40910         1.72266
C         12.25422         1.29142         1.53570
C         12.24139         4.07067         1.87023
C         11.11207         6.22387         1.56313
C         11.25247         7.67981         1.33004
C         12.23391         5.48202         1.98283
C         12.31427         8.40675         2.06200
C         10.99990        10.60670         1.83127
C         11.03304        12.11480         1.73732
C         12.26641         9.88536         2.24653
C         12.30809        12.87197         1.99346
C         10.87156        15.06062         1.68554
C         11.09449        16.47396         1.12889
C         12.13905        14.34680         2.40257
C         12.24040        17.21667         1.39126
C         11.17121        19.25311         0.56254
C         12.31458        18.60933         1.07910
C         13.46658         1.94011         1.59908
C         13.49516         3.39423         1.68697
C         14.70634         1.05961         1.78559
C         14.64717         4.19587         1.41694
C         13.43633         6.19253         2.38810
C         13.30327         7.63258         2.58770
C         14.81636         5.57165         1.93979
C         15.10885         8.70378         2.19674
C         13.56249        10.72415         2.31343
C         13.49037        12.21068         2.12150
C         14.85373        10.08319         1.95033
C         14.85425        12.87264         2.33798
C         13.47501        15.13064         2.35806
C         13.41477        16.64960         2.13931
C         14.81393        14.41362         2.31651
C         14.66676        17.21551         1.51683
C         13.52412        19.35237         1.33111
C         14.72426        18.67842         1.53973
C         15.89873         1.54596         1.00171
C         15.70223         3.68552         0.63881
C         17.22503         1.36533         1.20869
C         16.92973         4.32448         0.51983
C         15.96726         6.40932         1.45190
C         15.98436         7.87873         1.45449
C         16.98869         5.73529         0.75790
C         17.00382         8.59844         0.72150
C         15.83296        10.82622         1.27926
C         15.88031        12.23490         1.40148
C         16.83599        10.08648         0.43432
C         17.02728        12.93143         0.98347
C         16.04268        15.16566         1.81836
C         15.76998        16.50243         1.18101
C         17.11206        14.34832         1.14139
C         17.09704        17.03234         1.65789
C         15.98164        19.27620         1.82266
C         17.15340        18.50713         1.94241
C         18.26251         2.10130         0.46783
C         18.08528         3.52161         0.01954
C         19.48342         1.49789         0.30453
C         19.34960         4.29539        -0.29946
C         18.02457         6.46701        -0.08953
C         18.11342         7.93428         0.21394
C         19.36998         5.77378        -0.13852
C         19.31671         8.62372        -0.14750
C         18.13104        10.83311         0.28364
C         18.19115        12.20702         0.46630
C         19.27299        10.09268        -0.27005
C         19.46085        12.90372         0.35955
C         18.28804        15.02376         0.84408
C         18.30167        16.52812         0.87514
C         19.51690        14.32673         0.61765
C         19.61198        17.09556         1.36285
C         18.40929        19.11997         2.08930
C         19.62986        18.42000         1.87400
C         20.66686         2.18972        -0.16409
C         20.61925         3.57196        -0.35108
C         21.89735         1.48869        -0.31454
C         21.82306         4.36919        -0.75309
C         20.54881         6.47311        -0.15929
C         20.53596         7.93464        -0.25348
C         21.85585         5.68989         0.03367
C         21.76920         8.66781        -0.41314
C         20.59187        10.84086        -0.42566
C         20.64537        12.22234         0.05345
C         21.83401        10.05487        -0.45044
C         21.92825        12.85431         0.16240
C         20.73877        14.99352         0.76254
C         20.80292        16.37059         1.17750
C         21.98281        14.16563         0.90500
C         22.07506        17.00187         1.42822
C         20.89510        19.04798         2.07073
C         22.08122        18.37782         1.82120
C         23.11711         2.17176        -0.55522
C         23.11641         3.60415        -0.63756
C         24.34462         1.47381        -0.65609
C         24.32356         4.31181        -0.77015
C         23.12689         6.47116        -0.28576
C         23.06199         7.94871        -0.43985
C         24.33176         5.74669        -0.77820
C         24.21656         8.67160        -1.06072
C         23.08993        10.78099        -0.48657
C         23.09466        12.19031        -0.19260
C         24.28889        10.11983        -0.78135
C         24.36541        12.98076        -0.40793
C         23.27907        14.92120         0.76049
C         23.30321        16.30461         1.20642
C         24.42249        14.24998         0.42016
C         24.54475        17.00524         1.20461
C         23.37812        19.13017         2.00594
C         24.58688        18.41707         1.45041
C         25.57746         2.15232        -0.85759
C         25.55858         3.61096        -0.96211
C         26.79499         1.47740        -0.88983
C         26.72182         4.32295        -1.26502
C         25.49872         6.44023        -1.09790
C         25.47696         7.90839        -1.30557
C         26.72034         5.73956        -1.34698
C         26.75774         8.64295        -1.34015
C         25.56674        10.77668        -0.75710
C         25.63766        12.15579        -0.42808
C         26.77416        10.05689        -1.05673
C         26.88022        12.79429        -0.28429
C         25.76842        14.79721         0.83284
C         25.76869        16.31609         0.92465
C         26.88865        14.30181        -0.11351
C         26.95455        17.03084         0.79387
C         25.75336        19.12480         1.24247
C         26.96100        18.46685         0.85407
C         28.08271         2.25873        -0.88073
C         27.93206         3.54034        -1.70037
C         29.30691         1.49778        -1.33639
C         29.20770         4.34639        -1.72741
C         27.93381         6.46748        -1.61307
C         27.91885         7.90027        -1.59705
C         29.17653         5.76613        -1.78227
C         29.16901         8.61836        -1.88121
C         28.01901        10.74629        -0.94796
C         28.08657        12.08074        -0.49927
C         29.22360        10.09470        -1.49702
C         29.41693        12.70113        -0.06252
C         28.23155        14.86754         0.30790
C         28.25178        16.31936         0.66639
C         29.45252        14.21149        -0.21822
C         29.48524        17.11361         0.36062
C         28.11061        19.19259         0.49423
C         29.32384        18.56107         0.11225
C         30.39808         2.17557        -1.74945
C         30.40898         3.63409        -1.83146
C         31.62941         4.34502        -2.00653
C         30.42373         6.47655        -1.96132
C         30.43610         7.88786        -2.02210
C         31.63368         5.71803        -2.06945
C         31.61216         8.67578        -2.28466
C         30.58364        10.65451        -1.24001
C         30.68159        12.01054        -0.59044
C         31.67790        10.00911        -2.00353
C         31.87610        12.84465        -0.83822
C         30.59706        14.90834        -0.47850
C         30.66587        16.39270        -0.29779
C         31.82282        14.19360        -0.81414
C         31.54576        17.21400        -1.13238
C         30.37180        19.26190        -0.48584
C         31.44604        18.58234        -1.12250
O          8.39271         2.62970         2.83314
O         14.27497        14.89330         3.57209
O         18.41374         3.81276        -1.38189
O          9.84897        15.18914         2.65079
O         19.71485        10.60612        -1.58047
O          8.79983        17.56689        -2.04620
O          3.41904         3.83560        -1.52958
O         10.49020        14.72997        -0.77022
O         15.53123         2.45370        -0.01413
O          8.01878        12.05988        -2.18898
O         30.93747        10.78594         0.19269
O         12.84408        10.30136         3.50690
O         29.03302         9.69783        -2.88459
O         14.39070         8.17384         3.27814
O          7.33949         7.52219        -1.45175
O         16.89222        16.03300         2.80558
O         14.35919         5.59399         3.32880
O         10.43413        11.43924         2.88155
O         11.20699         8.07604        -0.11111
O          8.59429        10.26705         1.51622
O         28.39299        15.27951         1.70519
O         23.45604         7.35659         0.86135
O         30.66444        16.77325         1.12880
O          3.36551        16.57600        -1.63740
O         24.55619         8.28298        -2.42823
O         29.41577        12.50992         1.38304
H         29.90487        11.67338         1.56078
O          4.53566         5.92731         1.97146
H          5.26314         5.55771         2.53611
O         21.91080         5.33081         1.43041
H         22.34114         6.08271         1.89959
O         11.80519        14.24384         3.78676
H         10.84084        14.50634         3.84421
O         21.66447         4.75463        -2.15310
H         21.42582         3.95481        -2.66725
O         15.30237        12.49738         3.66015
H         14.77186        13.03433         4.29322
O          2.55373        10.61285         0.39313
H          2.65119        11.58849         0.36015
O          6.15761        14.55601         0.17804
H          6.63492        15.20052         0.76952
O          6.78285         4.64315         2.84897
H          7.01042         3.85924         3.40437
O         16.22015        10.09180        -0.91165
H         16.83284         9.62176        -1.51943
O         21.98731        13.76480         2.32892
H         22.87442        13.39568         2.53116
O         24.26755        13.48154        -1.80944
H         23.36530        13.84744        -1.93615
O         13.35264        17.26544         3.45473
H         13.84692        16.66969         4.06540
O         18.13047        17.00227        -0.49713
H         18.87320        16.65291        -1.03268
O          7.90080        16.34500         1.30521
H          8.47087        15.94017         2.04445
O          7.92336        19.34838         1.02458
H          7.77727        18.44488         1.39332
O         17.47133         6.40680        -1.44988
H         17.61740         5.48139        -1.77273
O         27.67637         3.12076        -3.07435
H         27.56588         3.92618        -3.62167
O         28.31477         2.66129         0.50509
H         28.40647         1.84947         1.04590
O         15.03378         0.99857         3.18168
H         15.04679         1.90970         3.54129
O         23.59411        19.37323         3.41250
H         23.68094        18.50692         3.86125
O          5.75697        12.29719        -3.80066
H          6.70556        12.41742        -4.02594
O         25.99137        14.24392         2.15572
H         26.90105        14.52261         2.43326
O         26.65436        14.87514        -1.42802
H         25.84055        14.45004        -1.80403
O          8.82164         9.60346        -2.02924
H          8.41146         8.87279        -2.54318
H          0.33447         1.65994        -0.14239
H          0.35615         4.11788        -0.17544
H          2.42187         0.34832         0.07527
H          0.50641         6.02691        -0.92665
H          0.61571         8.47029        -1.12280
H          0.78567        10.18951        -1.88993
H          1.09330        12.28131        -3.07321
H          1.58520        14.00396        -4.12309
H          1.68516        16.42669        -4.47598
H          2.86002        18.65501        -4.13817
H          4.86559         0.29532         0.59141
H          4.81054        19.91977        -3.34096
H          7.23558         0.25691         0.93874
H          6.72981        20.11577        -1.87345
H          9.79338         0.24952         1.00102
H          8.96628        20.24473        -0.52300
H         12.23992         0.19101         1.49676
H         11.18871        20.33877         0.38530
H         14.44616         0.01414         1.47152
H         13.49610        20.45208         1.29233
H         17.55985         0.61989         1.94492
H         16.04937        20.37101         1.92598
H         19.60505         0.45161         0.62313
H         18.45409        20.19524         2.32292
H         21.90843         0.39539        -0.19771
H         20.92617        20.09303         2.41243
H         24.34642         0.37771        -0.56160
H         23.28775        20.14119         1.52960
H         26.81869         0.38687        -0.73472
H         25.76607        20.21437         1.39269
H         29.32960         0.40139        -1.23727
H         28.05077        20.29030         0.44317
H         31.32462         1.64056        -2.00861
H         32.57202         3.78498        -2.08753
H         32.58750         6.24658        -2.20014
H         32.49487         8.18521        -2.72015
H         32.60630        10.56486        -2.19477
H         32.82491        12.33120        -1.04736
H         32.73569        14.77753        -0.99615
H         32.28083        16.72254        -1.78589
H         30.28996        20.35212        -0.60265
H         32.15979        19.17697        -1.71045
