         294
 CSIRO Nanostructure Databank - Neutral Graphene Oxide Data Set
C          1.44121         2.20648         1.67178
C          1.38234         3.58600         1.47969
C          2.42983         1.40616         1.11148
C          2.37906         4.26614         0.57701
C          1.30139         6.56203         0.72285
C          1.29279         7.86351         0.33422
C          2.57994         5.78297         0.86493
C          2.47302         8.55791        -0.10920
C          1.67700        10.79462         0.65218
C          1.93934        12.18392         0.84184
C          2.59021         9.96901        -0.01723
C          2.93493        12.84580         0.16165
C          2.32555        15.01319         1.25801
C          2.19828        16.34884         1.22807
C          3.33889        14.28964         0.40055
C          3.05981        17.15620         0.38091
C          3.17422        18.53779         0.65801
C          3.55118         2.00420         0.30966
C          3.72766         3.49616         0.72819
C          4.84085         1.26512         0.50626
C          4.89692         4.13035         0.06245
C          3.65169         6.30899        -0.10109
C          3.58623         7.74166        -0.63247
C          5.02468         5.63462         0.04997
C          4.84646         8.44089        -1.13186
C          3.79038        10.62281        -0.54874
C          3.59217        12.06427        -0.95975
C          4.91573         9.90748        -0.76814
C          4.81460        12.74778        -1.60120
C          3.66020        15.03504        -0.93598
C          3.82522        16.54993        -0.64468
C          4.85891        14.26378        -1.64140
C          4.66374        17.42992        -1.35046
C          4.17123        19.31126         0.07682
C          5.01243        18.72518        -0.89043
C          6.04900         1.85760         0.12792
C          5.97008         3.23521        -0.52846
C          7.27452         1.18751         0.25368
C          7.32767         3.94758        -0.50223
C          6.02187         6.13829        -1.01636
C          6.12274         7.66169        -0.91057
C          7.34231         5.40344        -0.78973
C          7.29427         8.35419        -0.80520
C          6.09163        10.42776        -1.53727
C          6.16145        11.96610        -1.79969
C          7.36330         9.80734        -0.97434
C          7.23601        12.66397        -0.90227
C          6.27106        14.84996        -1.94813
C          6.38677        16.34211        -1.83021
C          7.34276        14.14247        -1.17321
C          7.41608        17.06614        -1.30744
C          6.31124        19.29567        -1.22430
C          7.44271        18.52502        -1.32933
C          8.59905         1.85508        -0.04268
C          8.42011         3.33479         0.37361
C          9.79672         1.20993         0.70081
C          9.70308         4.13571         0.49577
C          8.54597         6.16836        -0.38118
C          8.56811         7.64185        -0.53401
C          9.58812         5.50812         0.43741
C          9.65549         8.40367         0.13823
C          8.52338        10.49921        -0.74689
C          8.58355        11.95289        -1.02437
C          9.66089         9.87314        -0.00982
C          9.86108        12.68578        -0.79023
C          8.63983        14.89836        -1.12479
C          8.44235        16.30764        -0.48206
C          9.77837        14.14629        -0.39762
C          9.77352        17.05325        -0.29575
C          8.82849        19.14151        -1.39439
C          9.72236        18.58343        -0.26719
C         11.08857         1.93456         0.37288
C         11.04966         3.44937         0.24262
C         12.22119         1.28948         0.01026
C         12.35969         4.08430         0.70395
C         10.62082         6.38008         0.93240
C         10.87842         7.65741         0.52497
C         12.50941         5.31515         1.27814
C         12.11507         8.35168         1.02040
C         11.00386        10.52851         0.11846
C         11.09133        11.96515        -0.28236
C         12.10798         9.85671         0.94806
C         12.15766        12.74441         0.49082
C         11.14224        14.82513        -0.69135
C         11.07840        16.33073        -0.37790
C         12.26303        14.18650         0.09195
C         12.38668        17.07915        -0.57826
C         11.09429        19.21849        -0.20798
C         12.29682        18.55873        -0.22868
C         13.45355         2.07378        -0.44309
C         13.60387         3.25403         0.53064
C         14.77386         1.33860        -0.46320
C         14.84419         4.11419         0.30160
C         13.60523         6.25686         1.02878
C         13.45019         7.62556         0.94840
C         14.85326         5.58665         0.59659
C         14.58240         8.47953         0.32827
C         13.42351        10.63476         1.19484
C         13.51595        11.98727         0.42166
C         14.70115         9.87509         0.89348
C         14.64215        12.75816         1.09227
C         13.59615        14.86602        -0.02844
C         13.46720        16.38886         0.29259
C         14.64302        14.24849         0.89653
C         14.79317        17.11350         0.11326
C         13.54224        19.25129        -0.01832
C         14.77235        18.59400         0.13548
C         15.97413         2.06068        -0.56641
C         15.87683         3.58251        -0.67403
C         17.22604         1.44402        -0.63740
C         17.17665         4.34697        -0.55510
C         15.97535         6.40864         0.10647
C         15.92326         7.78021         0.19997
C         17.16926         5.69522        -0.31190
C         17.15851         8.55768         0.12672
C         15.90955        10.61067         0.92194
C         15.90391        12.01001         1.26122
C         17.16512         9.96645         0.53536
C         17.16550        12.76730         1.39129
C         15.88965        15.03098         1.15421
C         16.04271        16.40674         0.59375
C         17.19122        14.27756         1.46102
C         17.21034        17.19699         0.97161
C         16.01069        19.25183         0.31283
C         17.20599        18.57171         0.67829
C         18.49433         2.23799        -0.49492
C         18.37776         3.63472        -1.12308
C         19.75083         1.54192        -0.97680
C         19.67967         4.38334        -0.98334
C         18.35033         6.52552        -0.64046
C         18.34863         7.93517        -0.19003
C         19.64493         5.85389        -0.96505
C         19.67660         8.59012         0.08919
C         18.34630        10.69724         0.40543
C         18.41444        12.10732         0.85390
C         19.59087        10.09382        -0.00074
C         19.43302        13.01163         0.18254
C         18.40700        15.05000         1.23810
C         18.37929        16.51038         1.66883
C         19.70336        14.31882         0.97609
C         19.69748        17.22782         1.36875
C         18.43426        19.33630         0.84602
C         19.61020        18.71980         1.14154
C         20.86898         2.25576        -1.21736
C         20.87285         3.71800        -1.11530
C         22.10273         4.47871        -1.19262
C         20.91856         6.60597        -0.86856
C         20.88589         7.96769        -0.58965
C         22.12042         5.84418        -1.10007
C         22.04079         8.80476        -0.72283
C         20.74697        10.84388        -0.22614
C         20.72382        12.29759        -0.18050
C         21.97924        10.15942        -0.54269
C         21.77098        13.08689        -0.57505
C         20.73544        15.15872         0.23844
C         20.75441        16.65442         0.39753
C         21.70187        14.52683        -0.47970
C         21.76976        17.15183         1.48461
C         20.90467        19.38827         1.16787
C         22.01052        18.61899         1.30976
O         11.75204         9.18472         2.19084
O          3.17795         6.57540        -1.42307
O         18.75753         6.37297        -2.07181
O         20.67405        17.02999         2.48153
O          4.79955         8.66702        -2.61581
O         11.41056         5.85076         1.94607
O          5.34402        16.99385        -2.51118
O         10.46795        16.59383         0.92296
O         15.38669         4.57903         1.56725
O          4.40624        13.49311        -2.78766
O          9.11933         6.81402        -1.60443
O          9.44477        12.36038        -2.14045
O          5.84448         9.72528        -2.84881
O         16.34019        14.87902         2.50841
O          7.71817         4.41542        -1.81987
O         11.53693        10.92279        -1.19845
O         18.21533        12.22017         2.29664
O          9.18257         9.26069         1.24224
O         15.70146        16.52335        -0.84572
O         14.15464        13.66829         2.14508
O         18.78865        13.38813        -1.06509
H         19.44258        13.86853        -1.61588
O         11.05258         3.68302        -1.21186
H         10.38765         3.06535        -1.60856
O          2.56775        11.97662        -1.98926
H          2.41501        12.90330        -2.29706
O         11.49895        14.61300        -2.08025
H         10.69876        14.80769        -2.63654
O          9.45115        18.80419        -2.63460
H          8.81466        18.96058        -3.36115
O          3.04607         5.94984         2.23372
H          3.23052         5.04605         2.60225
O          9.49884        14.10916         1.00788
H          9.67466        15.01035         1.38121
O          3.99453         3.48481         2.18608
H          4.95104         3.29572         2.30881
O         18.67043         2.48453         0.93892
H         18.67427         1.61874         1.39775
O         12.75071        16.97946        -1.96333
H         13.68423        17.26289        -2.06511
O         13.47315        10.97915         2.59740
H         12.93077        10.30484         3.07292
O         18.17322        16.60360         3.09896
H         19.05229        16.47547         3.52058
O          5.51975         5.78372        -2.31564
H          6.11175         6.17908        -2.98994
O          9.04742        18.92614         0.97520
H          9.60542        18.56665         1.70020
O         13.06064        16.53385         1.66376
H         13.50601        15.85635         2.21658
O          8.92757         1.79997        -1.45518
H          8.17839         2.18940        -1.95922
O         20.26374        13.99982         2.27413
H         19.60250        13.43019         2.74059
O         20.80774        17.31178        -0.86294
H         21.42288        16.83183        -1.45331
O         18.13669         3.49298        -2.55883
H         18.28928         4.38646        -2.94686
O         14.07775        14.65801        -1.37140
H         13.30466        14.75889        -1.98500
O          6.54559        14.68610        -3.38416
H          6.36426        13.73168        -3.60648
O         13.78427         2.59906         1.82058
H         14.26210         3.23883         2.39941
O          4.60670        14.26169         1.11399
H          4.47856        13.78968         1.96292
O          7.85275        16.15412         0.82797
H          7.84884        17.04505         1.24401
O         13.22166         2.56053        -1.78081
H         13.31074         1.81113        -2.40324
O          7.86580         3.34652         1.72067
H          8.50256         2.84307         2.28642
O          5.58303         6.11033         1.31423
H          4.84329         6.12815         1.97450
O         15.41671         3.89044        -2.01597
H         16.14897         3.63089        -2.62421
O          2.51282        14.87518        -1.78730
H          2.73290        15.25284        -2.66515
O          6.59274        12.09155        -3.15979
H          6.10719        11.41872        -3.69007
O          5.60930         2.99076        -1.92920
H          5.58639         3.88724        -2.36033
O          3.19727         1.93260        -1.11441
H          4.00700         2.21027        -1.62492
O          9.03039        15.18005        -2.50458
H          8.27012        14.93526        -3.10231
O          1.89459         4.19457        -0.77127
H          2.09112         3.28375        -1.11898
O         14.10969         8.69963        -1.05400
H         14.66136         9.40806        -1.45273
O          9.57148         1.27591         2.12132
H          8.90996         0.59360         2.35666
O         19.93353         8.30996         1.52681
H         19.28091         8.82699         2.04766
O         13.95371        11.78890        -0.92439
H         13.20641        11.39973        -1.44348
O          6.78611        12.46458         0.46992
H          7.36079        13.01661         1.04837
O         11.67334        12.69015         1.86231
H         12.39772        13.02856         2.44276
H          0.65476         1.72749         2.27601
H          0.55509         4.15923         1.92359
H          2.38021         0.31313         1.22426
H          0.36141         6.08633         1.03887
H          0.34861         8.42728         0.38185
H          0.79264        10.36066         1.13891
H          1.29994        12.70466         1.56818
H          1.73505        14.44048         1.98577
H          1.49853        16.86363         1.90323
H          2.53310        18.97103         1.43891
H          4.83195         0.23673         0.89899
H          4.35236        20.33973         0.41883
H          7.27480         0.19272         0.72945
H          6.42962        20.38807        -1.13017
H          9.88625         0.13060         0.40028
H          8.75279        20.26207        -1.28754
H         12.25142         0.18661         0.00806
H         11.09725        20.29820         0.01792
H         14.80563         0.23776        -0.41812
H         13.52165        20.35126         0.03689
H         17.28561         0.34307        -0.61341
H         16.03760        20.35072         0.26119
H         19.76605         0.44210        -1.02900
H         18.40693        20.41988         0.65534
H         21.80833         1.75394        -1.49507
H         23.04663         3.93021        -1.32613
H         23.08689         6.36622        -1.13826
H         22.99014         8.35957        -1.05289
H         22.89361        10.75005        -0.68589
H         22.69646        12.65290        -0.97660
H         22.50018        15.11180        -0.96479
H         22.66180        16.53768         1.74004
H         20.95962        20.47933         1.04135
H         23.02697        19.03707         1.29857
