         276
 CSIRO Nanostructure Databank - Neutral Graphene Oxide Data Set
C        -10.61712         0.29972         1.29837
C         -9.35760         0.82709         1.96319
C         -8.13123         0.17654         1.28718
C         -7.14409         1.04805         0.55991
C         -5.89669         0.34827         0.00057
C         -4.96686         1.28994        -0.77825
C         -3.80434         0.66813        -1.51782
C         -2.46203         1.37188        -1.46350
C         -1.37926         0.74385        -2.34199
C          0.00913         1.48633        -2.20423
C          1.28620         0.71526        -1.76300
C          2.27333         1.59208        -0.93762
C          3.54175         0.88009        -0.53199
C          4.81455         1.61798        -0.27401
C          5.83698         1.02674         0.66678
C          7.07213         1.84844         0.98172
C          8.29364         1.08672         1.43630
C          9.70191         1.61038         0.98270
C         10.78782         0.67148         0.58568
C         -9.26944         2.32541         1.99057
C         -7.90174         2.90868         2.17191
C         -7.04696         2.47431         0.97490
C         -5.72115         3.15242         0.81110
C         -4.84693         2.71620        -0.33423
C         -3.67744         3.62806        -0.75981
C         -2.40539         2.84269        -1.17975
C         -1.28954         3.69608        -1.78282
C          0.01533         2.99856        -2.17011
C          1.38397         3.74646        -2.00165
C          2.31239         3.08506        -1.00072
C          3.60836         3.83267        -0.73187
C          4.85525         3.11309        -0.37171
C          6.24699         3.62386        -0.71731
C          7.22690         3.20651         0.37966
C          8.57038         3.84277         0.30296
C          9.79628         2.95832         0.25596
C         -7.83089         4.40609         2.38647
C         -6.71741         5.12618         2.12237
C         -5.54087         4.47776         1.46940
C         -4.30320         5.28528         1.19062
C         -3.25390         4.68245         0.28031
C         -2.12024         5.55508        -0.17801
C         -1.28529         5.15213        -1.38616
C         -0.04274         5.97301        -1.63973
C          1.25333         5.25848        -1.81938
C          2.49428         6.03541        -1.48108
C          3.73366         5.28132        -1.14383
C          5.08185         5.90210        -1.40044
C          6.41928         5.14476        -1.10524
C          7.38444         5.93495        -0.22509
C          8.60780         5.18566         0.10393
C         -6.60270         6.59270         2.54010
C         -5.69763         7.37860         1.55745
C         -4.31176         6.74980         1.47749
C         -3.12315         7.60486         1.12285
C         -1.97025         6.95454         0.38751
C         -0.92889         7.87987        -0.15433
C         -0.00476         7.42903        -1.23036
C          1.27250         8.23411        -1.36417
C          2.51021         7.50626        -1.82435
C          3.81450         8.21488        -1.69541
C          5.08215         7.40641        -1.44126
C          6.06249         8.07930        -0.48160
C          7.31348         7.29449        -0.16434
C         -5.66486         8.87126         1.78935
C         -4.59999         9.64531         1.52543
C         -3.25440         9.09597         1.18503
C         -2.26913        10.00604         0.46099
C         -0.96274         9.33899         0.09723
C          0.25280        10.01892         0.01557
C          1.42300         9.41500        -0.49036
C          2.79803         9.97902        -0.19273
C          3.78222         9.71922        -1.37973
C          5.17390        10.27837        -1.15333
C          6.24338         9.53683        -0.82977
C        -10.71603        -0.97583         0.90154
C         -9.58260        -1.96254         1.16458
C         -8.24882        -1.24550         0.87184
C         -7.53114        -1.71195        -0.38532
C         -6.27368        -0.90874        -0.80488
C         -5.17488        -1.55495        -1.61278
C         -3.88453        -0.78259        -1.90153
C         -2.61695        -1.54156        -2.20562
C         -1.29927        -0.77740        -2.14527
C         -0.10101        -1.44351        -1.54951
C          0.91173        -0.52111        -0.86825
C          2.16504        -1.28054        -0.33556
C          3.41486        -0.52497        -0.02011
C          4.72858        -1.24241         0.17397
C          5.79819        -0.45159         0.87973
C          7.00528        -1.16524         1.42962
C          8.16230        -0.32533         1.73764
C          9.93390        -1.56238         1.34262
C         10.87424        -0.68308         0.66590
C         -9.72655        -3.25822         0.40278
C         -8.67898        -3.90984        -0.21533
C         -7.32486        -3.23166        -0.30149
C         -6.38141        -3.83019        -1.32152
C         -5.17448        -3.06606        -1.75900
C         -3.83795        -3.76156        -1.62508
C         -2.59960        -3.03196        -2.06772
C         -1.28386        -3.69725        -1.72426
C         -0.32053        -2.81824        -0.90818
C          1.00702        -3.55541        -0.71467
C          2.26021        -2.77810        -0.50181
C          3.46395        -3.51101         0.07446
C          4.74066        -2.72623         0.27541
C          5.93515        -3.51223         0.83016
C          7.07439        -2.69304         1.43834
C          8.41404        -3.51648         1.69691
C          9.57773        -2.82695         1.00393
C         -8.75621        -5.25616        -0.65784
C         -7.57360        -5.99764        -0.94000
C         -6.25904        -5.25049        -0.81691
C         -5.07628        -5.99777        -1.39927
C         -3.76932        -5.24766        -1.39559
C         -2.49761        -6.01042        -1.71468
C         -1.22706        -5.19046        -1.57930
C         -0.07784        -5.83177        -0.84462
C          0.86255        -4.92768        -0.10151
C          1.92333        -5.51937         0.76725
C          3.28268        -4.84781         0.74005
C          4.35554        -5.39284         1.66160
C          5.46594        -4.44018         1.99142
C          7.50534        -5.91072         1.73693
C          8.27195        -4.96660         1.20478
C         -7.60586        -7.35948        -1.12803
C         -6.40772        -8.26277        -1.29604
C         -5.10067        -7.48507        -1.52049
C         -3.80447        -8.25241        -1.37358
C         -2.48347        -7.51700        -1.59046
C         -1.15578        -8.31717        -1.19189
C         -0.01222        -7.30938        -0.65022
C          0.80858        -7.86367         0.51907
C          1.91546        -7.00900         1.19823
C          3.32078        -7.59281         0.97179
C          4.42756        -6.89831         1.75702
C          5.65717        -7.71385         2.20963
C          7.01820        -7.00091         2.30034
C         -6.30387        -9.22471        -0.13277
C         -5.13757        -9.79074         0.20226
C         -3.86338        -9.46767        -0.48761
C         -2.61979        -9.89619         0.18713
C         -1.41905        -9.36127        -0.09529
C         -0.26525        -9.63105         0.82218
C          1.11335        -9.31624         0.30764
C          2.33273        -9.87968         0.37302
C          3.52563        -8.99355         0.47493
C          4.86523        -9.59649         0.70086
C          5.83327        -8.98902         1.40048
O          2.45840        -0.82490         1.03142
O         -0.66186        -8.94612        -2.29393
O         -4.14216         0.27603        -2.87167
O          5.15293        -2.02955        -0.95936
O          6.62096        -2.00654         2.60878
O          5.22054         0.45828         1.86450
O          6.72921         3.05245         1.73994
O         -0.75801        -4.50954        -2.78640
O         -6.19495        -3.54595        -2.70956
O         -7.76647         2.09985        -0.23042
O         -2.71143        -2.41663        -3.37347
O         -5.07237         3.21475         2.11938
O          0.79422        -4.81032         1.36081
O          5.34852         6.65021        -2.63211
O         -3.88163         5.80449         2.50118
O         -3.63156        -4.32826        -0.27901
O         -0.20328        -8.30146         1.53392
O         -5.27614        -6.63240        -2.69867
O          4.08276         3.74355         0.66332
O         -1.95546         4.52371         0.87016
O         -0.24972        -1.36706        -2.97612
O         -5.62713         2.34133        -1.51530
O         -7.46428        -0.89558         2.04593
O          3.20643         7.94080        -3.01053
O         -2.49448        -6.86786        -2.88186
O         -2.66706         8.36149         2.29426
O          5.83417        -4.27990         3.13979
O          3.76175        -4.75240        -0.64282
O          1.91667        -3.31392        -1.81086
O         -1.86688         4.71840        -2.64388
O          3.60092        -7.82571        -0.43134
O         -2.00485         1.85874        -0.17934
O          3.87138        -6.09039         2.83100
O          0.12757         2.26966        -3.42188
O          0.53339         5.80791        -2.96217
O         -3.86117        -9.58095        -1.95154
O          9.21403        -0.90814         2.39983
O          0.73863        -6.71244        -1.70445
O         -6.56413        -3.60930         0.90460
O          1.67738         2.40906         0.11562
O         -6.26475        -0.83085        -2.25070
O          9.25684         1.73542         2.33662
O          2.92662         5.97819        -0.09011
O         -0.70302         7.10214         1.09299
O          7.21205         5.15768        -2.27029
O          0.15469         8.35613        -2.32421
O          4.61266         0.92781        -1.53392
O         -6.04849        -5.00136         0.62878
O          3.22140        10.43588        -2.49526
H          3.04885         9.77468        -3.21041
O          6.62987         2.84346        -1.86464
H          7.01993         3.51642        -2.50319
O         -1.82931         0.93436        -3.68256
H         -1.27834         0.38420        -4.27849
O         -6.09350         6.67544         3.86647
H         -5.18945         6.28117         3.86738
O          5.26610         8.07279         0.76265
H          5.85524         8.32964         1.50346
O         -4.18820         4.40918        -1.84701
H         -4.70469         3.81256        -2.43757
O          0.18384        -0.03798         0.27453
H          0.81665         0.37119         0.91154
O          6.42555        -4.27292        -0.28101
H          5.65465        -4.55212        -0.83483
O          2.71449        11.37971         0.04397
H          2.65970        11.80806        -0.83812
O         -8.51704        -1.50912        -1.41853
H         -8.03242        -1.39335        -2.27217
O          5.35141        -8.15525         3.54972
H          4.90203        -7.41066         4.00962
O         -6.25112         7.17682         0.22162
H         -6.97693         7.81988         0.07828
O          2.11802         3.61403        -3.23682
H          1.60765         4.07420        -3.94031
O         -0.96136        -2.60391         0.36112
H         -0.59348        -1.78573         0.77471
O         -9.38170         0.39439         3.35862
H         -8.59452         0.81180         3.78681
O          8.64818        -3.50045         3.09602
H          7.79000        -3.65895         3.55227
O          1.65004        -7.05759         2.59795
H          0.82444        -6.55527         2.76685
O         -6.64033        -9.04806        -2.48732
H         -6.32667        -8.52003        -3.25348
O         -9.63913        -2.31590         2.56072
H         -9.47901        -1.48538         3.07767
O         -5.10050        -0.10546         1.11377
H         -5.70053        -0.58070         1.74651
O          1.97794         0.23489        -2.90607
H          1.93291         0.91955        -3.60888
O         10.06307         2.66694        -1.12437
H          9.77968         3.42934        -1.67243
O         -7.30497         2.26745         3.35286
H         -6.35053         2.53469         3.36320
O         -2.91164        10.41803        -0.75951
H         -2.26735        10.91630        -1.30380
H         11.71071        -1.17016         0.14123
H         11.56870         1.16314        -0.01590
H         10.67869         3.51158         0.69622
H          9.57230         5.72093         0.10256
H          8.13186         7.85387         0.32026
H          7.23676        10.00137        -0.73227
H          5.29034        11.35321        -1.35742
H          3.20223         9.48722         0.73483
H          0.33220        11.03950         0.42458
H         -2.06628        10.91487         1.09807
H         -4.68173        10.73797         1.63202
H         -6.61644         9.34290         2.08280
H         -7.62454         7.05277         2.54236
H         -8.68530         4.89627         2.87945
H        -10.15769         2.89686         2.30203
H        -11.45846         0.99555         1.15975
H        -11.64562        -1.34617         0.44348
H        -10.68955        -3.78345         0.50494
H         -9.72486        -5.77782        -0.64255
H         -8.58656        -7.85916        -1.17099
H         -7.22745        -9.49606         0.39893
H         -5.08871       -10.50838         1.03563
H         -2.71044       -10.65128         0.98521
H         -0.40529       -10.49230         1.51475
H          2.47299       -10.96722         0.45481
H          5.06942       -10.56369         0.21562
H          6.80840        -9.48823         1.50651
H          7.69246        -7.52582         3.00625
H          8.83055        -5.22276         0.28472
H         10.11193        -3.34317         0.19307
