         204
 CSIRO Nanostructure Databank - Neutral Graphene Oxide Data Set
C        -11.18324         0.70322        -0.31290
C         -9.96393         1.45630        -0.11842
C         -8.74558         0.69904         0.03053
C         -7.53515         1.42839         0.48553
C         -6.23025         0.69163         0.55464
C         -4.95790         1.41764         0.65608
C         -3.75047         0.73134         0.59709
C         -2.49189         1.43763         0.68297
C         -1.26182         0.70681         0.57214
C         -0.01257         1.40599         0.62156
C          1.20777         0.68516         0.63939
C          2.46024         1.42588         0.88301
C          3.77000         0.66960         0.77007
C          4.99277         1.44363         0.50723
C          6.19895         0.72593         0.30272
C          7.43759         1.43243         0.25817
C          8.65420         0.71241         0.19237
C          9.94872         1.44312         0.45657
C         11.14151         0.69996        -0.09115
C         -9.91677         2.84762        -0.11484
C         -8.68791         3.58630         0.05100
C         -7.48482         2.89871         0.38250
C         -6.27514         3.59183         0.58943
C         -5.04072         2.85161         0.96159
C         -3.72049         3.61034         1.04921
C         -2.46450         2.84969         0.81514
C         -1.23390         3.53671         0.71811
C         -0.00319         2.83897         0.65229
C          1.24479         3.55791         0.59730
C          2.48368         2.88459         0.66572
C          3.71584         3.57796         0.53885
C          4.97448         2.85647         0.51864
C          6.21614         3.55978         0.38207
C          7.42233         2.86618         0.28681
C          8.68939         3.57556         0.07493
C          9.87431         2.89312         0.06267
C         -8.63286         4.98668        -0.08954
C         -7.41947         5.69196         0.05246
C         -6.21626         4.99743         0.40197
C         -4.96141         5.72205         0.50808
C         -3.76827         5.06665         0.79762
C         -2.49585         5.79950         0.94799
C         -1.20660         5.01076         0.83451
C          0.03068         5.68796         0.41237
C          1.22998         4.98003         0.37632
C          2.46722         5.66450         0.09616
C          3.70138         4.98618         0.24110
C          4.93740         5.71285         0.09107
C          6.23144         5.06444         0.52461
C          7.45528         5.70604        -0.10074
C          8.62526         4.99588        -0.20684
C         -7.37794         7.10475        -0.17923
C         -6.19120         7.82028        -0.12226
C         -4.95053         7.15652         0.22209
C         -3.77127         7.88883         0.23514
C         -2.48067         7.31880         0.77432
C         -1.31582         7.81535        -0.07581
C         -0.03357         7.04939        -0.12574
C          1.22670         7.75566        -0.40308
C          2.42366         7.04155        -0.31294
C          3.68100         7.67444        -0.71864
C          4.94572         7.02392        -0.35033
C          6.18334         7.77219        -0.49273
C          7.39272         7.10629        -0.41341
C         -6.16255         9.23662        -0.38975
C         -4.99195         9.93830        -0.39032
C         -3.73707         9.28299        -0.12495
C         -2.52169         9.97037        -0.25402
C         -1.26350         9.29297        -0.25089
C         -0.04948         9.91008        -0.48328
C          1.20625         9.19196        -0.57641
C          2.40273         9.89434        -0.69894
C          3.66621         9.21376        -0.93786
C          4.96362         9.90270        -0.79185
C          6.12488         9.21310        -0.67370
C        -11.18495        -0.66248        -0.36497
C         -9.95824        -1.42702        -0.29911
C         -8.73722        -0.67690        -0.12844
C         -7.46041        -1.40678        -0.28139
C         -6.18036        -0.67684        -0.01847
C         -4.93891        -1.42766         0.19778
C         -3.73991        -0.71511         0.42310
C         -2.50921        -1.42072         0.37739
C         -1.25743        -0.70711         0.44379
C         -0.01753        -1.42481         0.37088
C          1.23199        -0.71905         0.48185
C          2.46797        -1.44197         0.31769
C          3.73512        -0.75189         0.38064
C          4.93331        -1.39201         0.09835
C          6.18349        -0.69593         0.15713
C          7.41105        -1.40515         0.01103
C          8.64645        -0.68831         0.05065
C          9.89162        -1.41592        -0.10058
C         11.11661        -0.63891        -0.25752
C         -9.92350        -2.81533        -0.38851
C         -8.69521        -3.58581        -0.39388
C         -7.43471        -2.87544        -0.28869
C         -6.21445        -3.55775        -0.16420
C         -4.97360        -2.83024         0.08633
C         -3.74872        -3.52550         0.19514
C         -2.53519        -2.83015         0.24561
C         -1.27632        -3.54829        -0.13889
C         -0.00992        -2.82483         0.19513
C          1.20252        -3.55097         0.05832
C          2.45018        -2.83368         0.06512
C          3.67698        -3.56445        -0.12783
C          4.93720        -2.79937        -0.42474
C          6.19983        -3.56155        -0.11952
C          7.42103        -2.83722        -0.06918
C          8.66718        -3.55140        -0.09287
C          9.89054        -2.79466        -0.15511
C         -8.68618        -4.96234        -0.53041
C         -7.40418        -5.70177        -0.80528
C         -6.18227        -4.98721        -0.28385
C         -5.00770        -5.71706        -0.04719
C         -3.78562        -4.99319         0.33985
C         -2.47755        -5.75305         0.37178
C         -1.23155        -5.01196         0.18227
C         -0.03675        -5.69872        -0.00674
C          1.18236        -4.95853        -0.12541
C          2.42131        -5.67996        -0.55483
C          3.69162        -4.94334        -0.23430
C          4.93052        -5.68817        -0.16142
C          6.18461        -4.95869        -0.08026
C          7.43606        -5.69282        -0.03659
C          8.65842        -4.95111        -0.10120
C         -7.40162        -7.16891        -0.46691
C         -6.22255        -7.85693        -0.26352
C         -4.97128        -7.14102        -0.10059
C         -3.73702        -7.86261        -0.00940
C         -2.49783        -7.19053         0.09048
C         -1.25782        -7.87438        -0.02115
C         -0.03178        -7.15377        -0.04368
C          1.20268        -7.85218        -0.12192
C          2.43367        -7.14086        -0.20542
C          3.65827        -7.81313        -0.11919
C          4.90295        -7.07851        -0.06777
C          6.14801        -7.81907         0.35941
C          7.41477        -7.08460         0.02933
C         -6.17727        -9.30746        -0.20794
C         -4.99883        -9.98797        -0.15193
C         -3.72390        -9.30401        -0.09973
C         -2.51271        -9.99219        -0.11134
C         -1.25405        -9.31326        -0.09204
C         -0.01840        -9.99110        -0.10299
C          1.20951        -9.29023        -0.09794
C          2.47132        -9.95955        -0.11978
C          3.66797        -9.25464        -0.09932
C          4.95744        -9.93098        -0.18849
C          6.12325        -9.26762        -0.05213
O          4.93392        -2.65209        -1.90285
H          5.09031        -3.54452        -2.28052
O         -6.66510        -0.78633        -1.39793
O          6.33793         5.33223         1.96645
H          7.14523         4.87780         2.28932
O          3.17198         0.96631         2.08572
O         -4.45457         3.21034         2.25731
O         -3.21075        -5.41274         1.62557
O          6.10059        -7.84053         1.84628
H          6.09965        -6.90626         2.14671
O         -1.75060         5.43626         2.16736
O         -2.30712         7.92356         2.08313
H         -1.99973         7.20864         2.69024
O         -7.04962         0.85342         1.76720
O          2.38129        -5.66280        -2.05440
H          2.47138        -4.72392        -2.32815
O         -1.04649         7.07020        -1.29079
O         -1.33810        -3.54209        -1.63936
H         -0.49502        -3.93319        -1.95835
O         10.12427         1.43852         1.92488
H         10.14662         0.49976         2.20885
O          3.64759         8.26095        -2.05397
O         -7.26286        -5.67098        -2.29681
H         -6.41392        -6.11452        -2.51173
H         12.02783        -1.17814        -0.55974
H         12.08118         1.25674        -0.22777
H         10.81526         3.43502        -0.12026
H          9.54519         5.50284        -0.53808
H          8.32907         7.64345        -0.63029
H          7.07789         9.76194        -0.62861
H          4.97346        11.00297        -0.81404
H          2.40396        10.98938        -0.58950
H         -0.02045        11.00246        -0.61773
H         -2.54024        11.04749        -0.48164
H         -4.98815        11.01392        -0.62009
H         -7.11311         9.74299        -0.61336
H         -8.31329         7.62413        -0.43658
H         -9.54730         5.54239        -0.34521
H        -10.84395         3.41748        -0.27877
H        -12.12963         1.25689        -0.40385
H        -12.13319        -1.20537        -0.49380
H        -10.87100        -3.36445        -0.50161
H         -9.63561        -5.51083        -0.62573
H         -8.34008        -7.73064        -0.59407
H         -7.12887        -9.85683        -0.26258
H         -4.99865       -11.08824        -0.15659
H         -2.51911       -11.09215        -0.15259
H         -0.00745       -11.09151        -0.11694
H          2.48947       -11.05965        -0.14756
H          4.95481       -11.01018        -0.40685
H          7.08199        -9.80138        -0.13607
H          8.36562        -7.63852         0.06385
H          9.61156        -5.50023        -0.12260
H         10.84181        -3.33790        -0.26161
