         252
 CSIRO Nanostructure Databank - Neutral Graphene Oxide Data Set
C         30.37446        31.76512        -0.46135
C         30.41527        32.99890        -0.19056
C         30.51266        36.13791         0.49943
C         30.46862        37.37020         0.70589
C         30.52927        40.38166         1.87981
C         30.55297        41.63285         1.98285
C         32.74816        28.92301        -0.96157
C         31.62259        29.50834        -0.88408
C         32.82222        31.56865        -0.26926
C         31.41324        30.85522        -0.61056
C         32.79730        33.08326        -0.27022
C         31.56601        33.82855         0.01359
C         32.83660        35.88321         0.63758
C         31.55132        35.17756         0.36291
C         32.85732        37.37644         0.87230
C         31.61196        38.04073         1.48462
C         32.85549        40.24475         1.40116
C         31.68028        39.54700         1.53923
C         32.99303        41.66920         1.90392
C         31.42765        42.64608         1.37934
C         32.99323        44.47185         2.07486
C         31.90620        43.88709         1.98903
C         35.48581        27.42657        -1.00197
C         35.24066        28.79879        -1.26889
C         34.05014        29.45977        -1.13659
C         35.24783        31.74912        -1.24794
C         33.97115        30.97587        -1.09435
C         35.26719        33.16270        -0.77092
C         34.01482        33.77067        -0.41433
C         35.16950        36.01155        -0.37596
C         34.04393        35.17044         0.07670
C         35.17950        37.47109        -0.02524
C         33.98693        38.09257         0.63312
C         35.35748        40.29937         0.80871
C         34.03526        39.57211         0.80858
C         35.48648        41.60491         1.48424
C         34.23800        42.49197         1.47061
C         35.53074        44.70837         1.67656
C         34.37748        43.87851         2.24796
C         35.54837        45.83151         0.79959
C         37.73986        27.48162        -0.07890
C         36.40124        26.85400        -0.39300
C         37.75596        28.87059        -0.73849
C         36.59838        29.45759        -1.57630
C         37.85175        31.70989        -1.27843
C         36.54889        31.00711        -1.50611
C         37.80658        33.12443        -0.69366
C         36.48549        33.91321        -0.84218
C         37.46422        36.26055        -1.02283
C         36.43032        35.31583        -0.69672
C         37.66942        37.48958        -0.45565
C         36.52392        38.08114         0.26511
C         37.93728        40.18500         0.71232
C         36.60703        39.48057         0.76681
C         37.96020        41.62201         1.07303
C         36.77277        42.05932         1.75062
C         38.08045        44.70899         1.36890
C         36.82333        44.26782         1.93479
C         37.77411        46.44746         0.05284
C         36.35025        46.40295         0.02744
C         40.11840        24.77866         0.65030
C         39.10500        25.41310         0.35796
C         40.25842        27.35025        -0.48134
C         38.89862        26.60355        -0.54277
C         40.25249        28.72057        -0.51574
C         39.01137        29.51807        -0.73210
C         40.37750        31.61875        -0.84374
C         39.09378        30.90607        -0.99631
C         40.38857        33.10008        -0.73226
C         39.11895        33.84690        -0.93071
C         40.38370        35.94468        -0.57995
C         39.33102        35.14456        -1.25207
C         40.24008        37.41520        -0.30440
C         38.97473        38.22830        -0.76507
C         40.29883        40.40426        -0.34983
C         39.08191        39.55881        -0.02286
C         40.26126        41.78935         0.27590
C         39.11712        42.43788         0.79556
C         40.21233        44.66252         0.16937
C         39.12410        43.93272         0.84871
C         40.07978        45.83543        -0.59169
C         38.79052        46.46906        -0.88365
C         39.81305        47.67920        -2.74996
C         38.85606        47.18989        -2.12944
C         42.75375        24.63419         0.59623
C         41.44631        25.05985         0.09194
C         42.90890        27.17028        -0.80031
C         41.51296        26.51702        -0.50165
C         42.85055        28.70510        -0.68949
C         41.55614        29.44328        -0.60895
C         42.74296        31.57062        -0.04375
C         41.59250        30.91253        -0.35987
C         42.86441        33.07667        -0.21681
C         41.51657        33.77816         0.02422
C         42.77207        35.98558        -0.01694
C         41.65258        35.25779        -0.29820
C         42.72651        37.44572        -0.03471
C         41.54014        38.14142        -0.11381
C         42.83668        40.31835        -0.10939
C         41.53389        39.62458         0.21505
C         42.75859        41.79934        -0.39323
C         41.54981        42.46570         0.25674
C         42.73564        44.63916        -0.36132
C         41.53722        44.00670         0.21396
C         42.64965        45.89182        -0.95380
C         41.30967        46.58608        -1.13914
C         42.43213        47.99310        -2.79649
C         41.19775        47.10450        -2.68741
C         43.80255        25.25735         0.36352
C         45.30529        27.25367         0.10831
C         44.12165        26.59175        -0.01845
C         45.43189        28.73663        -0.11899
C         44.12555        29.46913        -0.38385
C         45.24910        31.59262         0.60245
C         43.95149        30.76835         0.41543
C         45.25359        33.08481         0.76654
C         43.95107        33.79226         0.59081
C         45.27303        35.99691         0.65491
C         43.97956        35.28681         0.51564
C         45.21129        37.47870         0.62437
C         44.07662        38.13263        -0.20722
C         45.29859        40.38882        -0.12948
C         44.01196        39.65070        -0.04969
C         45.26423        41.87492        -0.04112
C         44.04154        42.54612        -0.11371
C         45.20939        44.65861        -0.54600
C         44.00016        43.95773        -0.28092
C         45.10823        45.99128        -1.10444
C         43.84975        46.54347        -1.39932
C         43.49996        47.62726        -2.27585
C         47.48878        27.42703         1.25948
C         46.48402        26.85392         0.81784
C         47.52375        28.93304         1.49245
C         46.53205        29.50172         0.48617
C         47.75465        31.72240         0.77788
C         46.58968        30.97133         0.16777
C         47.72079        33.11804         0.86846
C         46.51745        33.87117         0.74904
C         47.70533        36.09408         1.33383
C         46.47882        35.30697         0.80542
C         47.78907        37.53943         0.84837
C         46.50171        38.25214         0.73172
C         47.76874        40.43722         0.63331
C         46.55831        39.65894         0.20958
C         47.71923        41.94260         0.48032
C         46.47337        42.61540         0.02163
C         47.73884        44.68232        -0.51261
C         46.46575        43.99259        -0.31483
C         47.51003        45.97815        -1.05176
C         46.41593        46.51619        -1.32717
C         50.13642        29.02701         1.49429
C         48.87318        29.57743         1.29024
C         50.24455        31.63156         0.92360
C         48.98340        30.97639         0.98937
C         50.22057        33.09620         0.48025
C         49.01668        33.83106         1.05692
C         50.27138        36.06535         0.82109
C         49.03099        35.32595         1.18935
C         50.25259        37.46411         0.66527
C         48.99370        38.21828         0.67783
C         50.25407        40.37291         0.40817
C         49.05263        39.68381         0.56460
C         50.33061        41.87795         0.37133
C         49.01729        42.69310         0.38473
C         50.27062        44.51541        -0.43665
C         48.96326        44.06624        -0.22040
C         51.28791        29.54932         1.39786
C         52.66540        31.72652         0.99699
C         51.47849        30.91975         1.13036
C         52.56486        32.97695         0.88236
C         51.50984        33.88858         0.76853
C         52.63367        36.12709         0.59414
C         51.49377        35.28175         0.74994
C         52.60849        37.35634         0.38863
C         51.47200        38.20819         0.41739
C         52.57359        40.41280        -0.10163
C         51.47498        39.59726         0.24849
C         52.64872        41.65394        -0.30243
C         51.59111        42.56245        -0.16838
C         51.38712        43.91875        -0.42010
O         45.05849        29.29813        -1.46760
O         39.86754        36.47152         0.74147
O         37.29738        31.59800        -2.62775
O         34.25959        31.59257        -2.36027
O         49.24584        34.43150         2.35989
O         49.83938        42.55408         1.57087
O         46.21211        39.87861        -1.18310
O         38.95746        39.39078         1.40944
O         45.26838        32.15245         1.93630
O         43.57770        34.54426         1.77573
O         34.54514        40.25611        -0.42239
O         36.93974        43.08836         2.68267
O         33.77350        35.20272         1.52736
O         34.87372        37.05969        -1.39042
O         45.55997        38.14068         1.86937
O         38.26064        46.11127         1.35708
O         38.38714        35.85437        -1.99387
O         40.75699        32.50141        -2.02422
O         47.55444        41.29069         1.79128
O         44.36456        37.87563        -1.55347
O         42.23444        29.22114        -1.92130
O         36.62196        38.36210         1.71099
O         41.82716        43.26645         1.43387
O         41.36149        25.28216        -1.31273
O         47.07087        29.21213         2.81902
H         47.75074        28.90650         3.45500
O         43.23170        26.86208        -2.16151
H         42.79391        27.53480        -2.73181
O         32.94387        41.65189         3.29783
H         32.21904        41.06446         3.59736
O         43.27241        33.28803        -1.58845
H         42.55240        32.92896        -2.16794
O         40.43441        40.62328        -1.75773
H         40.11112        39.82979        -2.24867
O         41.12969        33.65609         1.40673
H         41.80806        34.12879         1.95170
O         46.75907        31.23239        -1.25007
H         46.22541        30.57144        -1.75849
O         33.08453        31.14023         1.08324
H         32.50468        31.64085         1.69549
O         41.32783        46.02839        -3.55702
H         41.21101        46.32570        -4.48195
O         31.50044        37.61181         2.83869
H         30.73008        38.06491         3.24226
O         31.25075        42.73824         0.02576
H         31.76827        43.49174        -0.32571
O         37.89334        27.64375         1.32399
H         37.13442        28.14833         1.68136
O         42.58528        41.96341        -1.83388
H         43.01119        41.20532        -2.28778
O         36.88493        29.08512        -2.93685
H         37.30735        29.86594        -3.37026
O         41.34581        47.80815        -0.37213
H         41.31543        47.58656         0.58141
O         34.61184        43.61815         3.61118
H         34.70126        44.46326         4.09507
O         43.60241        30.24573         1.72597
H         43.91607        30.90388         2.39310
O         38.69463        26.16071        -1.85998
H         39.45916        25.59326        -2.11231
O         39.04189        38.45029        -2.18749
H         38.85453        37.58743        -2.63104
O         47.44509        36.22466         2.75173
H         47.83703        35.43529         3.19351
O         37.84797        32.86482         0.75006
H         38.06463        33.69956         1.22000
O         50.04325        33.11757        -0.95442
H         50.70567        32.52363        -1.36595
O         41.41190        39.73490         1.65751
H         41.97500        39.05430         2.08141
O         34.07537        42.86375         0.08670
H         34.07521        42.03081        -0.45162
