         420
 CSIRO Nanostructure Databank - Neutral Graphene Oxide Data Set
C         28.01225        27.39208        -1.30538
C         28.04568        28.80710        -1.40892
C         26.86186        29.55866        -1.76745
C         28.00773        31.68734        -1.38293
C         26.84726        30.92706        -1.75877
C         27.97032        33.05759        -1.13767
C         26.85773        33.86388        -1.53493
C         27.70769        35.88122        -0.40357
C         26.78143        35.20473        -1.25795
C         27.37163        37.13611         0.09920
C         26.41891        38.11789        -0.34113
C         27.83638        40.20240         0.03333
C         26.60305        39.47851        -0.18792
C         27.84906        41.66105         0.03778
C         26.64153        42.40265         0.23549
C         27.86956        44.50424         0.39467
C         26.64905        43.76795         0.39768
C         27.90183        45.91236         0.55795
C         30.39776        27.33177        -0.78665
C         29.16037        26.67915        -1.00701
C         30.43212        28.76203        -0.83623
C         29.24741        29.48444        -1.14462
C         30.46250        31.65369        -0.72947
C         29.32907        30.96215        -1.43096
C         30.41126        33.02296        -0.41014
C         29.08448        33.70953        -0.38222
C         30.26386        35.89831         0.41863
C         28.95389        35.15530         0.06174
C         30.34397        37.39255         0.28882
C         29.21999        38.17669         0.52400
C         30.31611        40.17888        -0.31656
C         29.08123        39.52855         0.11154
C         30.32944        41.72649        -0.33826
C         29.06737        42.39006         0.00964
C         30.33570        44.52369         0.21313
C         29.09449        43.80033         0.21293
C         30.34017        45.93513         0.35839
C         29.10009        46.60256         0.53074
C         32.84671        24.49033        -0.25445
C         31.65793        25.18304        -0.47441
C         32.85884        27.30021        -0.45410
C         31.62705        26.59365        -0.56244
C         32.87408        28.73734        -0.45436
C         31.65656        29.46841        -0.61181
C         32.84543        31.61511        -0.23183
C         31.66070        30.91566        -0.53293
C         32.85387        33.02864        -0.12242
C         31.60185        33.71048        -0.08794
C         32.86272        35.87297         0.14996
C         31.58124        35.14091         0.29111
C         32.84699        37.34038         0.23678
C         31.57843        38.08736         0.05012
C         32.81738        40.22876        -0.45787
C         31.58123        39.45542        -0.16834
C         32.85024        41.68864        -0.18645
C         31.60989        42.42122        -0.09287
C         32.82379        44.51870         0.44212
C         31.57587        43.79128         0.15869
C         32.83615        45.99119         0.28554
C         31.60176        46.68275         0.30127
C         32.85223        48.77829         0.19817
C         31.64520        48.09337         0.23783
C         35.33139        23.11171         0.59500
C         35.32542        24.46193         0.17179
C         34.07898        25.15694        -0.15743
C         35.32145        27.28925        -0.32410
C         34.09017        26.58357        -0.30664
C         35.33427        28.70402        -0.34155
C         34.10396        29.41842        -0.31110
C         35.30160        31.61682        -0.53547
C         34.12158        30.87734         0.05043
C         35.34680        33.07610        -0.30029
C         34.10834        33.75581        -0.06400
C         35.33188        35.92721        -0.16046
C         34.07734        35.19573         0.01079
C         35.35004        37.29106        -0.26607
C         34.13239        38.06909        -0.01337
C         35.37947        40.23593        -0.25177
C         34.12171        39.49457        -0.45871
C         35.35133        41.63338        -0.10664
C         34.07987        42.32222        -0.01375
C         35.37680        44.47311         0.14183
C         34.12287        43.74221         0.36506
C         35.31114        45.92177        -0.06966
C         34.06066        46.68327         0.15206
C         35.36761        48.83873         0.16159
C         34.09246        48.10229         0.15095
C         35.41756        50.25010         0.23185
C         37.74652        23.15329         0.94428
C         36.51251        22.47961         0.96927
C         37.77113        24.50817         0.48149
C         36.55502        25.15105         0.12079
C         37.83276        27.30881        -0.11613
C         36.60612        26.52498        -0.49373
C         37.82091        28.72155        -0.22830
C         36.58970        29.40611        -0.37810
C         37.85776        31.59310        -0.50739
C         36.60402        30.84816        -0.62897
C         37.83392        33.01288        -0.50917
C         36.58215        33.72581        -0.39419
C         37.80632        35.87840        -0.77088
C         36.65087        35.19046        -0.06187
C         37.86495        37.37560        -0.73000
C         36.57402        38.08366        -0.54074
C         37.81602        40.19333        -0.02918
C         36.59552        39.52730        -0.19360
C         37.82423        41.61254         0.05432
C         36.59081        42.32668         0.01856
C         37.84984        44.44504         0.09344
C         36.58860        43.76829         0.05917
C         37.82646        45.89858         0.29548
C         36.62092        46.68492        -0.08504
C         37.83054        48.85677         0.17786
C         36.60493        48.15126         0.14142
C         37.86567        50.27311         0.23573
C         36.62167        50.94218         0.26614
C         40.12643        20.60681         2.45123
C         38.95768        21.25186         2.10523
C         40.17566        23.22639         1.35967
C         38.97631        22.55099         1.46981
C         40.29217        24.44640         0.49165
C         39.01082        25.22103         0.40498
C         40.28163        27.34921         0.18381
C         39.03821        26.61635         0.15055
C         40.28676        28.75485        -0.03662
C         39.06052        29.45609        -0.20826
C         40.31500        31.59256        -0.35006
C         39.07265        30.88124        -0.34909
C         40.31593        33.01687        -0.47204
C         39.08424        33.70443        -0.52351
C         40.36587        35.90629        -0.65134
C         39.10852        35.14967        -0.79326
C         40.33685        37.33471        -0.43211
C         39.13532        38.03980        -0.39881
C         40.35503        40.19046         0.03399
C         39.08297        39.40829         0.23519
C         40.33867        41.58861         0.06993
C         39.08189        42.32234         0.08441
C         40.35277        44.46977        -0.21836
C         39.06813        43.73184         0.08366
C         40.37958        45.91801         0.18818
C         39.15333        46.65858         0.34572
C         40.41439        48.85381         0.09073
C         39.09014        48.10513         0.00263
C         40.36489        50.28587         0.40064
C         39.14595        50.99435         0.34543
C         40.40870        53.06866         0.69806
C         39.20017        52.40576         0.48989
C         42.60416        20.61382         2.58343
C         41.38188        21.25692         2.33897
C         42.69824        23.29721         1.62915
C         41.38217        22.74272         2.11193
C         42.71677        24.63730         1.13694
C         41.51368        25.28741         0.77198
C         42.74869        27.39017         0.40862
C         41.51151        26.66742         0.45569
C         42.75693        28.77944         0.07284
C         41.53015        29.47218        -0.09059
C         42.78211        31.59322        -0.43128
C         41.54529        30.88625        -0.28579
C         42.78814        33.02212        -0.53720
C         41.55940        33.74037        -0.52835
C         42.81461        35.88676        -0.40154
C         41.56396        35.18308        -0.54182
C         42.81265        37.31034        -0.21351
C         41.58529        38.03598        -0.18231
C         42.82772        40.15357         0.11633
C         41.58579        39.45129        -0.00951
C         42.83378        41.58209         0.25228
C         41.59613        42.31313         0.14796
C         42.83149        44.43263         0.31619
C         41.61173        43.71569         0.13883
C         42.84819        45.85764         0.39131
C         41.65390        46.65564        -0.08017
C         42.67221        48.72232         1.10892
C         41.57095        48.05528         0.45941
C         42.73289        50.17837         1.11681
C         41.58914        50.93110         0.77470
C         42.86473        53.01091         1.17373
C         41.60786        52.35972         0.87522
C         43.82003        21.27303         2.41160
C         45.17210        23.27728         1.70125
C         43.89218        22.60936         1.91323
C         45.18926        24.64863         1.29541
C         43.96576        25.33546         1.03121
C         45.21763        27.38964         0.47240
C         43.97206        26.70370         0.64851
C         45.20798        28.75395         0.02057
C         43.99520        29.46992        -0.13162
C         45.22786        31.54004        -0.82788
C         44.01215        30.87246        -0.46219
C         45.23550        32.98480        -0.90284
C         44.04007        33.71679        -0.63384
C         45.25361        35.88231        -0.29695
C         44.03555        35.16656        -0.46546
C         45.27845        37.28591        -0.10867
C         44.04911        38.01323        -0.06143
C         45.29533        40.15458         0.21592
C         44.05555        39.43711         0.09818
C         45.30892        41.56416         0.42689
C         44.05540        42.27604         0.43781
C         45.26541        44.41225         0.72423
C         44.05572        43.71020         0.52863
C         45.27054        45.82101         0.76606
C         44.02848        46.52610         0.70939
C         45.26254        48.70324         1.06990
C         44.02793        47.92894         1.15274
C         45.25174        50.10885         1.23260
C         43.97192        50.81954         1.70530
C         43.97466        52.31382         1.50813
C         47.61088        23.33460         1.83978
C         46.39943        22.64253         1.94598
C         47.65412        24.67481         1.45268
C         46.43275        25.34171         1.16018
C         47.68031        27.35311         0.39894
C         46.43174        26.70676         0.70966
C         47.64203        28.64448        -0.23143
C         46.42875        29.37830        -0.36393
C         47.59104        31.08708        -1.61339
C         46.41306        30.69795        -0.93933
C         47.56819        33.36068        -1.78775
C         46.45097        33.78258        -1.10062
C         47.77300        35.92653        -0.48125
C         46.50795        35.12525        -0.44070
C         47.74499        37.38898        -0.28965
C         46.52612        38.03249        -0.05992
C         47.76267        40.17711         0.13032
C         46.53008        39.45694         0.10731
C         47.77491        41.58884         0.38406
C         46.54795        42.25570         0.56780
C         47.78802        44.45479         0.81273
C         46.52756        43.67532         1.09100
C         47.74914        45.84571         0.73207
C         46.49591        46.56301         0.78099
C         47.69135        48.73088         0.66005
C         46.47651        47.99116         0.80092
C         47.65041        50.12815         0.78500
C         46.46087        50.80050         1.07473
C         50.21992        24.69291         1.28304
C         48.94531        25.47112         1.50669
C         50.13968        27.32395         0.27390
C         48.90667        26.71139         0.64652
C         50.10376        28.59847        -0.36492
C         48.86011        29.22381        -0.65821
C         50.08063        31.05634        -1.71544
C         48.82790        30.42194        -1.43036
C         50.05010        33.39117        -1.92129
C         48.85407        34.02969        -1.72146
C         50.20913        36.05337        -0.99915
C         48.87633        35.48910        -1.40274
C         50.20470        37.43151        -0.66737
C         48.97261        38.10998        -0.37401
C         50.24543        40.21893        -0.09181
C         48.99509        39.50133        -0.10086
C         50.25538        41.61681         0.29400
C         49.05198        42.27299         0.49001
C         50.31735        44.45927         0.58101
C         49.08400        43.69548         1.01791
C         50.25439        45.92585         0.69375
C         48.96399        46.62243         0.59970
C         50.13762        48.72013         0.07980
C         48.93842        48.01032         0.47217
C         51.36674        25.30154         0.89555
C         52.61738        27.39918         0.19934
C         51.40161        26.69101         0.47554
C         52.57141        28.76134        -0.23024
C         51.30522        29.31556        -0.56527
C         52.33027        31.52181        -0.55675
C         51.25711        30.63065        -1.12612
C         52.17229        32.99960        -0.73669
C         51.29221        33.87361        -1.32679
C         52.64750        36.04915        -1.03100
C         51.40122        35.32495        -1.06298
C         52.61090        37.45067        -1.08553
C         51.42424        38.16160        -0.74552
C         52.65110        40.38846        -0.74946
C         51.42671        39.55953        -0.46263
C         52.88106        41.52420         0.27122
C         51.56249        42.31982         0.70039
C         52.73352        44.56210         0.14885
C         51.52236        43.81074         0.35119
C         52.76162        45.96398         0.14669
C         51.52489        46.72933         0.43142
C         51.34275        48.10747        -0.03767
C         55.05659        27.48627         0.06684
C         53.91015        26.79059         0.34540
C         55.02687        28.86871        -0.31450
C         53.78087        29.54043        -0.43565
C         54.95647        31.67867        -0.87177
C         53.74601        30.95056        -0.71079
C         55.07980        33.14779        -1.10370
C         54.05426        34.03267        -0.72612
C         55.15425        36.01702        -1.47380
C         53.93979        35.36734        -1.13708
C         55.09993        37.47524        -1.27798
C         53.81528        38.21047        -1.60504
C         55.11874        40.42438        -1.34606
C         53.93993        39.58046        -0.94470
C         55.04870        41.87297        -0.99654
C         54.00107        42.40689        -0.26701
C         55.21304        44.62258        -0.32107
C         54.05924        43.82518         0.23483
C         55.17663        46.02408        -0.25061
C         53.97890        46.67966         0.00184
C         56.22050        29.59737        -0.53068
C         56.17695        30.94909        -0.80939
C         56.20655        33.80167        -1.65725
C         56.27887        35.20559        -1.71563
C         55.83837        38.19477        -0.39680
C         55.22838        39.51811        -0.11822
C         56.20584        42.65325        -1.32328
C         56.29465        43.98063        -0.96510
O         37.13242        37.91689        -1.90458
O         28.15147        37.57409         1.18611
O         51.58743        42.40294         2.12866
O         33.45213        39.78488        -1.72623
O         51.07015        46.47817         1.79694
O         43.21219        48.10447         2.35829
O         35.76616        31.20043        -1.82829
O         28.66816        34.07144         0.99225
O         53.06560        33.60355         0.16949
O         30.91122        35.38106         1.61033
O         36.00706        46.30385        -1.34298
O         33.48916        44.04894         1.67434
O         30.23875        40.94626        -1.56703
O         38.26975        35.37379        -2.03303
O         47.46141        35.14626         0.70635
O         38.37141        46.33856         1.57631
O         47.53754        32.15642        -2.51357
O         33.63620        37.90226         1.36418
O         50.07220        32.16039        -2.57043
O         39.79816        48.46603        -1.22780
O         37.02520        35.28022         1.35769
H         36.27119        34.95019         1.89178
O         46.48659        43.55228         2.56204
H         47.42590        43.43071         2.86068
O         49.01729        25.95373         2.90192
H         49.81053        26.52738         2.96749
O         49.23439        43.57302         2.47413
H         50.12643        43.09903         2.59649
O         41.23397        23.32645         3.48312
H         41.96171        22.95586         4.02810
O         52.36229        40.98569        -2.05725
H         53.12017        41.56183        -2.30037
O         43.93000        50.61061         3.15590
H         43.74650        49.64819         3.29430
O         36.73513        26.30140        -1.96264
H         35.94012        25.80092        -2.24685
O         54.23831        43.72919         1.69749
H         53.41018        43.30786         2.05598
O         39.03182        39.12744         1.69585
H         39.14146        39.98346         2.16323
O         40.52397        23.91992        -0.88423
H         40.36934        24.66165        -1.50840
O         29.70727        31.03820        -2.86787
H         29.04110        30.51684        -3.36559
O         34.34676        30.93866         1.50623
H         33.54308        30.59158         1.94826
O         53.65582        38.36294        -3.04012
H         52.92353        39.00495        -3.17699
O         40.35785        44.53217        -1.70146
H         41.07305        45.17555        -1.95361
O         55.85294        40.14128        -2.51210
H         55.48217        39.32362        -2.91473
O         41.87312        46.77173        -1.56560
H         41.16286        47.38763        -1.88264
O         48.53393        36.15890        -2.67171
H         49.24486        35.96290        -3.31794
O         53.37784        40.89692         1.46824
H         52.80570        41.27447         2.20456
O         52.07028        31.38301         0.89689
H         52.62838        32.05811         1.34650
H         27.06646        26.86203        -1.48744
H         25.94110        29.00161        -1.99311
H         25.89489        31.44658        -1.93724
H         26.05809        33.40793        -2.13410
H         25.90628        35.77090        -1.60898
H         25.48618        37.77877        -0.81808
H         25.74458        40.09910        -0.48801
H         25.68016        41.87343         0.28000
H         25.70291        44.30807         0.54658
H         26.95779        46.45696         0.70263
H         29.10277        25.58315        -0.96317
H         29.08221        47.69287         0.66186
H         32.80412        23.39622        -0.16470
H         30.72711        24.60573        -0.55337
H         32.82348        49.87589         0.18198
H         30.71396        48.67544         0.23100
H         34.39107        22.54665         0.64951
H         34.48734        50.83342         0.25136
H         36.46022        21.43327         1.29888
H         36.58822        52.03903         0.31087
H         40.09468        19.56229         2.79626
H         38.00477        20.71890         2.22239
H         40.41705        54.16568         0.77431
H         38.28030        53.00147         0.42098
H         42.60280        19.55772         2.89267
H         42.89736        54.11063         1.13562
H         44.74508        20.72176         2.62550
H         44.88479        52.86744         1.77990
H         48.53820        22.79993         2.08686
H         46.42890        21.58885         2.25421
H         48.57302        50.71688         0.69406
H         46.49336        51.89261         1.18341
H         50.25705        23.63568         1.58316
H         50.04304        49.76715        -0.24029
H         52.29393        24.71113         0.85440
H         52.18875        48.64196        -0.49268
H         56.03521        26.99361         0.16525
H         53.98491        25.74247         0.66632
H         56.07549        46.60296        -0.50926
H         53.96409        47.77754         0.03453
H         57.18935        29.08404        -0.44803
H         57.12430        31.49024        -0.93787
H         57.08185        33.22138        -1.98181
H         57.22714        35.67336        -2.01483
H         56.76029        37.84975         0.08908
H         55.31708        39.97476         0.87942
H         57.02146        42.16472        -1.87300
H         57.16900        44.57894        -1.26133
