         661
 CSIRO Nanostructure Databank - Neutral Graphene Oxide Data Set
C          6.22509        31.93687        -1.74047
C          6.17023        33.28102        -1.51803
C          8.72823        27.63653        -1.37685
C          8.71633        29.07345        -1.35193
C          7.51114        29.81545        -1.65339
C          8.68594        31.98641        -1.39429
C          7.45824        31.19270        -1.60888
C          8.57258        33.37182        -0.93048
C          7.31776        34.03526        -1.04463
C          8.32830        36.06316        -0.12787
C          7.22253        35.39407        -0.71657
C          8.36202        37.45185         0.14725
C         10.99715        23.30421        -0.75916
C         10.94368        24.70274        -0.59155
C          9.86105        25.45621        -1.06252
C         11.07097        27.55593        -0.59128
C          9.84371        26.88282        -0.99487
C         11.11898        29.02452        -0.70186
C          9.87331        29.75555        -0.96660
C         10.99449        31.91996        -0.23097
C          9.97298        31.21540        -1.03029
C         10.90299        33.27449        -0.01211
C          9.68083        34.01735        -0.31818
C         10.40658        35.91602         1.21973
C          9.50693        35.32192         0.17163
C         10.74834        37.38609         0.94461
C          9.58494        38.10664         0.50121
C         10.85802        40.19338         0.44998
C          9.64437        39.50078         0.32275
C         10.88800        41.57116         0.05338
C         13.30955        18.97832        -0.67939
C         13.29585        20.31561        -0.37042
C         12.14698        21.14298        -0.62185
C         13.25778        23.16412         0.38197
C         12.09752        22.51332        -0.35485
C         13.33082        24.66484         0.22868
C         12.01342        25.39583         0.23198
C         13.38395        27.53338         0.27543
C         12.15266        26.86200        -0.10291
C         13.41736        28.96798         0.43983
C         12.27070        29.75351        -0.06869
C         13.27348        31.85886         0.84118
C         11.99575        31.10277         0.56148
C         13.23811        33.21703         0.94449
C         11.94315        33.92427         0.80031
C         13.32792        36.27763         2.38301
C         11.59084        35.05569         1.48055
C         13.24269        37.48424         1.67883
C         11.97606        38.08056         1.17543
C         13.28419        40.23167         0.96687
C         12.01981        39.47912         0.88474
C         13.32469        41.64489         0.42899
C         12.07624        42.29235        -0.05024
C         13.39197        44.35610        -0.39568
C         12.15259        43.63631        -0.45620
C         13.38274        45.79609        -0.51693
C         15.78680        14.59883        -0.71182
C         15.77699        15.94668        -0.41750
C         14.44213        16.67049        -0.33500
C         15.84137        18.85489        -0.35850
C         14.54810        18.16193        -0.61546
C         15.81865        20.29915        -0.03031
C         14.50100        20.95504         0.30682
C         15.82405        23.12430         0.38768
C         14.55152        22.44923        -0.06849
C         15.82687        24.62479         0.17443
C         14.50823        25.33134         0.43920
C         15.71050        27.45975         1.09366
C         14.51447        26.77876         0.57291
C         15.77822        28.93298         1.09890
C         14.55641        29.64155         0.86124
C         15.81559        31.80987         0.78716
C         14.52780        31.10726         1.24629
C         15.81632        33.28348         1.18893
C         14.53515        33.96806         0.81092
C         15.75930        36.13497         2.28759
C         14.53255        35.64413         2.75210
C         15.74315        37.45419         1.80044
C         14.52048        38.15988         1.53177
C         15.78308        40.26245         0.97274
C         14.56292        39.52099         1.11419
C         15.83544        41.54299         0.43290
C         14.60620        42.15335        -0.19813
C         15.84564        44.43357         0.10632
C         14.59682        43.66293        -0.20284
C         15.84262        45.79533        -0.56145
C         14.55979        46.54070        -0.57925
C         15.82934        48.67347        -0.70337
C         14.61370        47.94453        -0.73153
C         15.82169        50.08882        -0.78592
C         18.21921        10.24225        -0.96979
C         18.12134        11.62919        -0.50927
C         16.97417        12.45267        -0.86887
C         18.23531        14.51541        -0.36488
C         16.99343        13.82663        -0.63535
C         18.22903        15.93742        -0.30187
C         17.02301        16.63096        -0.22803
C         18.32704        18.79121        -0.04516
C         17.01418        18.07329         0.21156
C         18.25887        20.27607        -0.14793
C         16.98396        20.97372         0.17870
C         18.29373        23.09289         0.82797
C         16.99273        22.41544         0.44680
C         18.25675        24.60313         0.66640
C         17.07955        25.28480         0.70363
C         18.25998        27.49809         1.25828
C         17.03554        26.70357         1.12856
C         18.22882        28.85870         1.47456
C         16.99894        29.60595         1.30721
C         18.24037        31.75443         1.31161
C         17.05042        31.05916         1.22732
C         18.25277        33.18903         1.55795
C         16.95833        33.91103         1.62147
C         18.24881        36.04196         2.05405
C         16.99821        35.26633         2.38264
C         18.29046        37.38493         1.81876
C         17.03318        38.18006         1.79522
C         18.33312        40.27021         1.06055
C         17.04981        39.62785         1.41152
C         18.38328        41.56318         0.61462
C         17.12564        42.21630         0.18162
C         18.39843        44.45983        -0.03121
C         17.14059        43.68727        -0.15718
C         18.37874        45.84210        -0.12537
C         17.13981        46.54369        -0.54289
C         18.27467        48.73766        -0.30170
C         17.09847        48.01406        -0.52679
C         18.25448        50.17760        -0.34319
C         16.99518        50.84188        -0.64064
C         18.15912        53.00692        -0.75886
C         16.98739        52.24251        -0.85457
C         18.18711        54.33084        -1.20096
C         20.78651         6.41135        -2.90620
C         20.71947         7.63139        -2.08618
C         19.47497         8.31868        -1.78927
C         20.69659        10.30862        -0.91422
C         19.44706         9.58292        -1.16808
C         20.66966        11.51615         0.00410
C         19.37891        12.33404        -0.03394
C         20.66228        14.49107         0.14121
C         19.45338        13.81066        -0.13160
C         20.74729        15.90904         0.04018
C         19.54635        16.64473        -0.54434
C         20.79541        18.85334        -0.31090
C         19.50080        18.12841        -0.21889
C         20.83530        20.31280        -0.07504
C         19.56085        21.05935        -0.12071
C         20.80790        23.22595         0.10211
C         19.53338        22.46035         0.26165
C         20.80972        24.59131         0.73848
C         19.53573        25.34013         0.69829
C         20.76889        27.37017         1.70779
C         19.54477        26.80103         1.01953
C         20.79937        28.87692         1.62539
C         19.49484        29.62910         1.84170
C         20.80551        31.73415         1.24313
C         19.51356        30.95103         1.06973
C         20.76798        33.21812         1.52285
C         19.45350        33.85069         1.78194
C         20.79002        36.00904         2.31660
C         19.48787        35.25970         2.22778
C         20.74011        37.46992         2.07253
C         19.56465        38.10322         1.77029
C         20.74553        40.35635         1.64362
C         19.61773        39.48273         1.14570
C         20.78265        41.73046         1.07849
C         19.64843        42.30634         0.57841
C         20.82817        44.55467         0.46937
C         19.70520        43.69579        -0.05254
C         20.77461        45.93986         0.41132
C         19.55995        46.64131         0.06116
C         20.66336        48.84958         0.35359
C         19.51641        48.05914         0.01876
C         20.65753        50.25773         0.18958
C         19.42657        50.90933        -0.14895
C         20.67972        53.06914        -0.51854
C         19.38033        52.41810        -0.08504
C         20.66037        54.35095        -1.02332
C         19.41281        55.04143        -1.33516
C         20.66767        56.98166        -2.24983
C         19.44374        56.28640        -1.95686
C         20.68342        57.91748        -3.24277
C         23.34347         4.07605        -4.30107
C         22.10193         4.59212        -3.90817
C         23.19455         6.77999        -3.45347
C         21.98924         5.90245        -3.37034
C         23.15337         8.14617        -2.83224
C         21.99109         8.48226        -1.94775
C         23.10807        10.74301        -1.50166
C         21.88327         9.85283        -1.41466
C         23.08703        11.84361        -0.47415
C         21.91433        12.36654        -0.05614
C         23.16447        14.44340         0.62786
C         21.84644        13.68439         0.67519
C         23.10484        15.90727         0.88073
C         21.91312        16.61233         0.37092
C         23.29620        18.78268         0.35553
C         22.04442        18.04552         0.03964
C         23.33415        20.24958        -0.03330
C         22.02258        20.98542         0.17549
C         23.23678        23.06688         0.72221
C         22.03661        22.39704         0.40890
C         23.24871        24.52671         0.87597
C         21.99177        25.26781         0.89887
C         23.20445        27.39712         1.15598
C         22.03282        26.69577         1.23204
C         23.26428        28.82671         1.44499
C         21.99513        29.54912         1.60171
C         23.23821        31.70131         1.71651
C         22.05062        31.00519         1.54878
C         23.23228        33.14040         1.81240
C         22.04876        33.88454         1.86962
C         23.27292        36.03982         1.97723
C         22.07793        35.31362         2.05554
C         23.28926        37.49463         1.97748
C         22.02282        38.19673         2.40962
C         23.29132        40.37650         1.89128
C         22.00455        39.68501         2.10317
C         23.23610        41.88090         1.91641
C         22.10861        42.45078         1.01235
C         23.25323        44.66591         1.11142
C         21.93340        43.95097         1.29679
C         23.18798        46.05098         0.92918
C         21.94316        46.70503         0.75031
C         23.16537        48.96967         1.08158
C         21.85718        48.15214         0.87027
C         23.09761        50.45290         0.85859
C         21.86466        51.05416         0.31115
C         23.17809        53.06046        -0.34078
C         21.91541        52.38298        -0.16609
C         23.19519        54.37572        -1.02083
C         21.91732        55.04624        -1.39327
C         23.26497        57.30713        -1.75008
C         21.87318        56.57805        -1.40347
C         23.21965        58.19635        -3.00481
C         21.91917        58.57076        -3.69525
C         23.19572        59.44207        -5.61124
C         21.98924        59.09720        -5.06175
C         24.52380         4.80122        -4.16759
C         25.69793         6.81627        -3.41193
C         24.52155         6.15471        -3.70062
C         25.74979         8.20281        -2.91883
C         24.43377         8.90015        -2.60331
C         25.62094        10.54260        -1.20476
C         24.42966        10.01203        -1.63069
C         25.64908        11.71136        -0.27819
C         24.35979        12.38780         0.05607
C         25.66958        14.42415         0.93090
C         24.35477        13.79898         0.49622
C         25.67495        15.91793         0.73089
C         24.44583        16.65941         0.92531
C         25.75611        18.80967         0.62988
C         24.45582        18.11845         0.64574
C         25.74853        20.24871         0.57626
C         24.54683        20.97020         0.50143
C         25.74147        23.19634         0.73389
C         24.47388        22.36982         0.70957
C         25.61301        24.47817         1.57395
C         24.41460        25.22075         1.05386
C         25.73009        27.37060         1.05916
C         24.44943        26.67357         0.68675
C         25.69354        28.86770         0.89048
C         24.45452        29.50451         1.48292
C         25.77952        31.66150         1.55800
C         24.52372        30.92472         2.00883
C         25.81678        33.12508         1.76682
C         24.51667        33.86510         1.96472
C         25.72860        36.02253         1.73032
C         24.52600        35.33930         1.82594
C         25.77584        37.49276         2.09477
C         24.46177        38.20971         1.87948
C         25.73780        40.39200         1.68141
C         24.47011        39.67426         1.81963
C         25.74232        41.84733         1.58482
C         24.53377        42.55547         1.54494
C         25.72189        44.64233         1.03567
C         24.50168        43.95515         1.22782
C         25.71313        46.06356         0.66627
C         24.41710        46.83087         0.69295
C         25.64719        49.01966         0.64429
C         24.43747        48.29165         0.84310
C         25.68154        50.41007         0.69203
C         24.41583        51.18482         0.72396
C         25.63637        53.21339        -0.07819
C         24.40201        52.48877         0.03726
C         25.54354        54.57045        -0.36462
C         24.42106        55.20204        -0.96419
C         25.75240        56.87412        -2.27171
C         24.51043        56.41524        -1.65467
C         25.66535        57.82144        -3.31616
C         24.46121        58.39357        -3.77799
C         24.42226        59.11876        -4.97287
C         26.94277         8.73355        -2.25086
C         28.11005        10.53656        -1.05852
C         26.89264         9.90757        -1.53245
C         28.13664        11.76665        -0.46056
C         26.91578        12.47436        -0.11918
C         28.18121        14.51513         0.41843
C         26.92755        13.76252         0.37643
C         28.20388        15.88371         0.66327
C         26.95348        16.62528         1.09007
C         28.25249        18.74850         0.76414
C         26.94096        18.08610         0.70549
C         28.31708        20.24209         0.81796
C         27.04384        21.02925         0.48287
C         28.15362        23.09231         1.63046
C         26.92963        22.36429         1.17621
C         28.11369        24.56398         1.50546
C         26.92182        25.23390         1.45145
C         28.18004        27.37713         1.33847
C         26.89659        26.67797         1.25352
C         28.15578        28.82587         1.28654
C         26.98213        29.54897         1.23304
C         28.15028        31.73548         0.76785
C         26.94323        31.00461         1.26013
C         28.17062        33.23146         0.92184
C         27.02616        33.89002         1.38352
C         28.14317        36.10749         1.34083
C         26.97846        35.33693         1.51025
C         28.12418        37.54246         1.24627
C         26.96917        38.24281         1.55884
C         28.21590        40.41367         1.56833
C         26.92855        39.68270         1.56207
C         28.22902        41.88024         1.50002
C         26.98637        42.56338         1.46005
C         28.19359        44.70184         1.13289
C         26.98279        43.98280         1.21707
C         28.17782        46.07198         0.46883
C         26.96529        46.86962         0.94189
C         28.19948        49.00012         0.63872
C         26.92444        48.26281         0.29037
C         28.21967        50.36981         0.60652
C         26.96156        51.14918         0.66980
C         28.26134        53.15444        -0.30000
C         26.97010        52.63309         0.29168
C         28.35492        54.30101        -1.15703
C         27.39742        55.32735        -1.16797
C         27.02684        56.21608        -2.18165
C         29.45377        12.33435         0.00820
C         30.63527        14.51250         0.15776
C         29.43896        13.83533         0.16281
C         30.71287        15.92048         0.42245
C         29.45856        16.59798         0.72163
C         30.76494        18.66416         1.15321
C         29.47188        17.95319         1.00401
C         30.78798        20.13140         1.44245
C         29.49025        20.89606         1.51141
C         30.73299        23.16818         1.50951
C         29.48581        22.38496         1.72316
C         30.68261        24.52338         1.31146
C         29.37644        25.23872         1.03605
C         30.69117        27.39133         1.66068
C         29.37362        26.70257         1.38432
C         30.63772        28.86220         1.32791
C         29.43552        29.48742         1.14471
C         30.71117        31.38475         0.29223
C         29.37960        30.84609         0.57615
C         30.60401        33.50418         0.38766
C         29.40547        33.98548         0.88365
C         30.72459        36.16913         1.07894
C         29.42719        35.38997         1.33848
C         30.57489        37.51417         0.52398
C         29.25525        38.26836         0.52361
C         30.60351        40.56149         0.68727
C         29.46913        39.69194         1.07320
C         30.67770        41.88056         1.16030
C         29.46566        42.57111         1.46847
C         30.80029        44.78209         1.11638
C         29.45508        44.04474         1.45037
C         30.72398        46.10040         0.37063
C         29.45316        46.87139         0.61806
C         30.71387        48.98932         1.04672
C         29.43903        48.23420         0.70294
C         30.67651        50.40504         0.53951
C         29.48354        51.08029         0.42233
C         29.42418        52.40827        -0.12604
C         31.90450        16.63822         0.29652
C         33.10310        18.82180         0.32008
C         31.98380        18.03813         0.57894
C         33.17192        20.24437         0.55185
C         32.05633        20.91827         1.26130
C         33.12944        23.17116         0.69761
C         32.02446        22.43816         1.34998
C         33.06543        24.57306         0.59005
C         31.88295        25.29408         0.99174
C         32.98879        27.43955         0.47844
C         31.87200        26.69177         1.00037
C         33.04287        28.86943         0.54257
C         31.97160        29.58731         1.36603
C         33.16128        31.81790         0.82133
C         31.87788        31.00301         0.85038
C         33.08405        33.27534         0.36822
C         31.90660        34.05579         0.59414
C         33.08374        36.11509         0.15895
C         31.93635        35.45422         0.65148
C         32.98086        37.49046        -0.20318
C         31.61455        37.96791        -0.23379
C         32.98238        40.50275        -0.09432
C         31.67447        40.11036        -0.15335
C         33.23601        41.79984         0.55044
C         31.99470        42.57431         1.07839
C         33.18803        44.69592         0.41272
C         32.01735        44.02242         0.88057
C         33.20546        46.10641         0.35636
C         32.00806        46.88155         0.52249
C         31.97383        48.24371         0.66629
C         34.25519        21.00930         0.15454
C         35.35254        23.17839        -0.31743
C         34.26426        22.45264         0.20837
C         35.33942        24.58836        -0.40856
C         34.16584        25.30495         0.04119
C         35.14610        27.40520        -0.81198
C         34.08366        26.70417        -0.07759
C         35.15840        28.93142        -0.78465
C         34.11510        29.62488         0.00044
C         35.37722        31.74136        -0.36880
C         34.24009        31.03848         0.10595
C         35.44937        33.17719        -0.31737
C         34.26990        33.94221         0.04771
C         35.40729        36.11022        -0.51844
C         34.26655        35.37862        -0.11490
C         35.35053        37.51963        -0.71382
C         34.11602        38.23405        -0.57677
C         35.39831        40.41982        -0.75438
C         34.04770        39.74816        -0.90178
C         35.50012        41.76187        -0.46396
C         34.39207        42.56000         0.02356
C         34.37258        43.93526         0.05716
C         36.45410        25.30913        -0.91358
C         37.52097        27.44982        -1.54635
C         36.41635        26.70227        -1.09339
C         37.54504        28.86976        -1.54287
C         36.42892        29.61891        -1.05833
C         37.68030        31.72494        -1.30847
C         36.50703        31.01511        -0.89445
C         37.73386        33.14074        -1.22379
C         36.61121        33.86230        -0.72801
C         37.88448        36.06005        -1.19841
C         36.67097        35.34516        -0.64610
C         37.78415        37.52689        -1.60204
C         36.54973        38.25456        -1.10433
C         36.55979        39.62802        -1.08571
C         38.70940        29.58889        -1.94786
C         39.92618        31.70592        -2.35349
C         38.77633        30.97727        -1.86463
C         39.96128        33.06504        -2.33501
C         38.87833        33.85050        -1.77610
C         38.91013        35.22766        -1.84153
O         29.19037        39.81916         2.48904
O         17.16748        42.71402        -1.25177
O         19.66397        26.39715        -0.37481
O         23.67883        51.19218         1.99429
O         21.68339         7.49298        -0.94104
O         13.30370        41.44711         1.85838
O         21.65953        18.33938        -1.39380
O         25.32484        33.44588         3.14175
O         15.47978        18.48522        -1.72659
O         20.13231        35.50931         3.53430
O         12.21082        29.64903        -1.51550
O         22.55504        59.46885        -2.68997
O         27.04953        52.22540         1.68399
O         30.63593        32.48576        -0.56233
O         22.67008        54.36956        -2.43454
O         22.34654        48.56776         2.21006
O         32.99958        41.96887         1.97099
O         18.82383        20.76439        -1.39265
O         27.20183        22.46678         2.58698
O          9.74826        31.76740        -2.36951
O         16.18884        26.82948         2.34183
O         32.45926        21.61274         2.48437
O         34.63897        28.19159        -1.94433
O         17.03567        39.23305         2.84004
O         26.60886        55.38579        -0.00004
O         15.96326        24.70641        -1.25113
O         22.85809         7.98946        -4.24779
O         18.44057        11.84277         0.97817
O         28.70615        19.58557        -0.43965
O         30.29699        35.82931         2.43756
O         16.59496        45.92543        -1.79267
O         28.45855        31.10566        -0.53845
O         25.05563        46.37831        -0.60130
O         29.38834        21.44710         2.85116
O         31.36264        39.07815        -1.06527
O         37.74616        35.84613         0.24130
O         21.07067        40.34410         3.06979
O         20.91043        32.68914         0.12942
O         30.92639        19.17212         2.53982
O         25.13940         9.19991        -3.84372
O         14.54769        35.03951         0.20845
O         12.22550        35.45676         2.67641
O         30.27114        44.75245         2.46153
O         23.65272        16.32041         2.17326
O         24.97559        11.43601         1.00861
O         25.96109        23.68278        -0.60941
H         26.09026        22.90153        -1.19782
O         27.98156        45.76170        -0.93606
H         28.87002        45.53101        -1.30648
O         33.71178        39.84843        -2.31494
H         32.80004        39.48994        -2.41234
O         21.57959        13.44212         2.08335
H         21.33849        12.48538         2.17825
O         30.93877        27.26555         3.11397
H         30.12309        27.54581         3.58230
O         20.75086        10.93457         1.34945
H         19.81230        10.82573         1.64944
O         11.36768        30.79085         1.85237
H         11.12431        31.64046         2.27822
O         14.36220        20.74678         1.72999
H         13.69422        21.38748         2.07627
O         21.52955        56.90997        -0.04267
H         22.18895        57.58658         0.25930
O         19.41511        29.94112         3.25421
H         19.40393        29.08978         3.74355
O         15.86590        44.67903         1.55251
H         14.95813        44.91720         1.83739
O         22.09234        38.08408         3.86600
H         21.38585        38.66345         4.23171
O         26.98860        16.62195         2.56349
H         26.77087        15.69612         2.84536
O         19.99436        39.22241        -0.25398
H         19.24813        38.76693        -0.69758
O         25.95168        37.50915         3.55534
H         25.18394        37.04657         3.95580
O         37.81057        37.61497        -3.04175
H         36.89283        37.56407        -3.37873
O         27.09262        47.03460         2.36779
H         26.42581        47.68396         2.67656
O         25.72074        14.21530         2.39584
H         24.87640        14.58170         2.75251
O         11.52004        25.33071         1.63212
H         10.63829        25.76164         1.65209
O         22.98109        11.45637        -2.78532
H         23.28943        10.86099        -3.50414
O         30.67935        45.70097        -1.05300
H         30.90075        46.49304        -1.58842
O         19.69750        16.57411        -1.99688
H         20.46827        17.14659        -2.23073
O         27.15301        21.39386        -0.92890
H         27.49519        20.59518        -1.39903
O         22.58086        42.30519        -0.34912
H         21.87963        42.64790        -0.95350
O         24.62111        30.81414         3.46184
H         24.80775        31.72793         3.79469
O         32.40156        29.57279         2.76036
H         32.18358        28.67815         3.12755
O         22.99977        42.21704         3.31889
H         22.26131        41.63426         3.62997
O          9.61033        35.91725         2.45690
H         10.22486        36.16566         3.18210
O         16.80925        18.06735         1.65555
H         17.50701        17.51664         2.06844
O         15.79149        31.74458        -0.66169
H         16.68912        31.94487        -1.00013
O         14.56738        22.51556        -1.50895
H         15.06981        23.35593        -1.74768
O         13.02242        22.97892         1.81408
H         12.37466        23.67512         2.08745
O         30.53158        11.90795        -0.82907
H         30.39335        12.28119        -1.72341
O         25.55056        29.14318        -0.57042
H         26.43338        29.39106        -0.92539
O         14.58404        41.69188        -1.58792
H         15.40508        42.04439        -2.00667
O         20.85991        23.48055        -1.35976
H         20.31836        24.27856        -1.55202
O         14.53096        31.14819         2.70311
H         13.84122        30.52915         3.02427
O         24.41098        26.69142        -0.77931
H         24.62431        27.61552        -1.06025
O         26.95100        48.16287        -1.15242
H         26.32290        47.44062        -1.40424
O         28.77753        38.39524        -0.84208
H         29.52598        38.74221        -1.38259
O         20.58171        27.03840         3.12627
H         21.41834        27.24413         3.59560
O         25.30366        24.20481         2.95572
H         25.99602        23.58661         3.29823
O         23.55411        20.27306        -1.48271
H         22.82897        19.73858        -1.89018
O         14.45134        34.46574         3.42519
H         13.49335        34.27625         3.56285
O         23.51506        58.24471        -0.66389
H         23.17635        59.12283        -0.96459
O         20.00953        43.43219        -1.47810
H         19.17497        43.08782        -1.87675
O         19.46714        30.56748        -0.32957
H         19.83491        31.32005        -0.84602
O         19.23308        52.73492         1.34205
H         19.25457        53.71147         1.43200
O         21.47407        44.17078         2.66073
H         22.13683        43.74453         3.26284
O         33.59288        31.95661         2.21250
H         33.39529        31.10640         2.67607
O         13.50131        16.08042        -1.23915
H         13.80478        16.27479        -2.15047
O         17.16599        34.85559         3.76290
H         16.37157        34.33990         4.02375
O         29.30657        25.18888        -0.44072
H         28.41571        25.50203        -0.71123
O         30.73109        49.07434         2.51399
H         30.60512        48.16766         2.86784
O         18.45037        22.89624         2.29278
H         17.66313        23.29069         2.72782
H          5.31554        31.38842        -2.02717
H          5.21653        33.81626        -1.63443
H          7.81809        27.11214        -1.70488
H          6.58926        29.24775        -1.85138
H          6.28136        35.93726        -0.88567
H          7.49196        38.07535        -0.10682
H         10.16240        22.81097        -1.28446
H          9.01692        24.93999        -1.54573
H          8.74617        40.04081        -0.01253
H          9.94060        42.03986        -0.25209
H         12.39941        18.48847        -1.06348
H         11.28667        20.67909        -1.13365
H         11.23307        44.17277        -0.73207
H         12.41215        46.30720        -0.60030
H         14.83809        14.08609        -0.92778
H         14.02625        16.53209         0.69942
H         13.67039        48.50598        -0.80949
H         14.87000        50.60902        -0.97029
H         17.29243         9.73987        -1.28498
H         16.06161        11.96846        -1.24674
H         16.06261        52.72049        -1.21314
H         17.26223        54.79384        -1.57831
H         19.86796         5.81555        -3.02142
H         18.53511         7.88715        -2.16375
H         18.50137        56.71390        -2.33305
H         19.75896        58.12093        -3.80579
H         23.39239         3.04555        -4.68051
H         21.20578         3.95754        -3.95963
H         23.22916        59.89486        -6.61236
H         21.05577        59.21340        -5.63064
H         25.48625         4.33061        -4.41410
H         26.65262         6.28228        -3.53765
H         26.58220        58.04680        -3.88223
H         25.36580        59.32170        -5.49954
H         27.90194         8.20934        -2.37801
H         29.06501        10.02643        -1.25658
H         29.20138        54.34566        -1.85937
H         27.72587        56.37372        -3.01718
H         29.65808        11.89689         1.02772
H         31.56238        13.95256        -0.03695
H         31.62478        50.92160         0.32696
H         30.36949        52.83803        -0.49254
H         32.80763        16.11653        -0.05507
H         33.99458        18.33908        -0.11035
H         34.16639        46.62732         0.23268
H         32.92117        48.80588         0.69100
H         35.11803        20.51222        -0.31498
H         36.23209        22.62978        -0.68656
H         36.48594        42.24909        -0.54000
H         35.24385        44.49586        -0.31493
H         37.37074        24.75810        -1.17311
H         38.43546        26.91299        -1.84130
H         38.70203        38.05693        -1.23480
H         37.50303        40.15782        -1.29393
H         39.56503        29.02951        -2.35507
H         40.76739        31.13422        -2.77225
H         40.83337        33.60202        -2.73621
H         39.71700        35.72944        -2.39621
