         618
 CSIRO Nanostructure Databank - Neutral Graphene Oxide Data Set
C         23.02784        69.71690         0.05051
C         22.99042        71.14152        -0.07341
C         21.77745        71.85066        -0.00957
C         22.93726        73.97968        -0.19300
C         21.76010        73.25293        -0.07746
C         25.47492        65.44617         0.44643
C         25.45658        66.83918         0.31308
C         24.26369        67.59504         0.23840
C         25.49342        69.77832        -0.00033
C         24.22956        69.00692         0.11938
C         25.44485        71.20719        -0.40443
C         24.21097        71.88368        -0.25694
C         25.42477        74.00884        -0.31835
C         24.18850        73.30979        -0.28315
C         27.97299        61.12501         0.92540
C         27.95188        62.56173         0.80272
C         26.72864        63.28317         0.76234
C         27.93216        65.32388         0.23202
C         26.69777        64.67298         0.51819
C         27.88335        66.73100        -0.21194
C         26.79337        67.55737         0.41549
C         27.92958        69.66458        -0.80551
C         26.79304        69.04526        -0.00709
C         27.88433        71.19911        -0.98533
C         26.64649        71.92123        -0.56614
C         27.91603        74.14905        -0.36109
C         26.63725        73.33793        -0.44378
C         30.23264        56.81505         1.12459
C         30.35829        58.19553         0.74869
C         29.18049        58.95570         0.89018
C         30.45650        61.04182         0.85965
C         29.14339        60.37157         0.84984
C         30.46100        62.55309         0.78391
C         29.17775        63.26446         0.62279
C         30.39854        65.35653        -0.00523
C         29.15817        64.63577         0.26516
C         30.40223        66.66632        -0.40543
C         29.14967        67.41261        -0.58571
C         30.31351        69.30441        -1.50276
C         29.20521        68.88427        -0.82725
C         30.35045        71.47825        -1.47403
C         29.13657        72.01564        -1.02719
C         30.42652        73.96122        -0.36422
C         29.18895        73.34364        -0.51411
C         32.77463        52.57324         1.46435
C         32.74244        53.95090         1.21143
C         31.46001        54.58193         1.35700
C         33.00616        56.78680         0.17493
C         31.14128        55.81222         0.77162
C         32.88802        58.21337         0.24467
C         31.63322        58.87381         0.41624
C         32.86951        61.02414         0.22201
C         31.67297        60.29955         0.46823
C         32.85672        62.47507         0.11090
C         31.70489        63.18763         0.31961
C         32.97150        65.39798         0.26220
C         31.68101        64.66541         0.29274
C         32.93769        66.84679        -0.13231
C         31.67028        67.37063        -0.70630
C         32.86747        69.64588        -1.20962
C         31.66752        68.73897        -1.32396
C         32.84695        71.11788        -1.14349
C         31.63623        71.93415        -1.09738
C         32.91027        73.90502        -0.38473
C         31.66266        73.27225        -0.57993
C         35.28865        48.37145         1.85341
C         35.26336        49.77427         1.98880
C         34.02641        50.48350         1.82615
C         35.17118        52.68472         1.99347
C         33.97783        51.86422         1.69878
C         35.19447        54.07893         1.50599
C         34.03173        54.67166         1.03513
C         35.37093        56.78896         0.59019
C         34.10592        56.07896         0.63543
C         35.36959        58.20037         0.24935
C         34.12533        58.92450         0.21942
C         35.36350        61.03495        -0.04979
C         34.11672        60.33527         0.11360
C         35.37218        62.42966        -0.33608
C         34.07572        63.20792        -0.43955
C         35.37149        65.31039        -0.55437
C         34.28744        64.60909         0.22631
C         35.30536        66.69976        -0.97224
C         34.13925        67.54765        -0.63398
C         35.35130        69.63686        -1.07135
C         34.08854        68.96738        -1.10178
C         35.36588        71.07707        -0.66284
C         34.06000        71.79125        -0.90177
C         35.37002        73.84638        -0.47526
C         34.10609        73.19712        -0.60898
C         37.73299        44.18034         0.94350
C         37.71985        45.54082         1.34211
C         36.51698        46.25119         1.54999
C         37.74457        48.36549         1.90614
C         36.50737        47.65008         1.79498
C         37.72665        49.79380         2.08500
C         36.48800        50.48877         2.16208
C         37.76094        52.75713         2.38696
C         36.46025        51.95524         2.34618
C         37.74371        53.96826         1.42843
C         36.49164        54.87048         1.68576
C         37.82835        56.65721         0.34242
C         36.55507        56.09967         0.81471
C         37.84771        58.16367         0.07337
C         36.58179        58.90651         0.17172
C         37.84312        61.02455        -0.10518
C         36.59349        60.32544         0.01061
C         37.83615        62.42204        -0.38469
C         36.57577        63.08805        -0.56318
C         37.83724        65.26328        -1.17364
C         36.53886        64.52562        -0.91968
C         37.84073        66.74211        -0.79983
C         36.58979        67.46199        -1.25211
C         37.80918        69.61497        -1.20655
C         36.56656        68.93366        -1.11722
C         37.78157        71.05389        -1.31931
C         36.61135        71.82705        -1.09268
C         37.79934        74.03116        -0.59499
C         36.61348        73.24539        -0.79569
C         40.12561        40.29276        -0.97874
C         40.12568        41.61799        -0.43991
C         38.94134        42.20839         0.05463
C         40.18130        44.23572         0.68730
C         38.93404        43.52672         0.57446
C         40.19588        45.56956         1.19496
C         38.97072        46.24266         1.48419
C         40.22446        48.30170         1.93156
C         38.97591        47.63127         1.79352
C         40.22580        49.80240         1.80037
C         38.95147        50.52851         2.09434
C         40.17532        52.67247         1.93073
C         38.99609        51.94692         2.09870
C         40.28606        54.17171         2.08202
C         39.02989        54.74684         1.47139
C         40.35735        56.79901         0.82306
C         39.15810        55.89681         0.51869
C         40.30692        58.20668         0.49890
C         39.13118        58.89475         0.19210
C         40.27741        61.10664         0.12729
C         39.09471        60.33636         0.04743
C         40.25138        62.51398        -0.03537
C         39.06344        63.15523        -0.39883
C         40.29116        65.39189        -0.67227
C         39.15648        64.50148        -1.09618
C         40.29069        66.73780        -1.02622
C         39.08713        67.46798        -1.20850
C         40.27506        69.60424        -1.51866
C         39.05520        68.89020        -1.36992
C         40.28039        71.03474        -1.57655
C         39.00662        71.65888        -1.70332
C         40.36450        73.97276        -0.75654
C         39.05048        73.69110        -1.14306
C         42.47805        36.45155        -2.94812
C         42.39273        37.83563        -2.66469
C         41.29249        38.36522        -1.99731
C         42.49835        40.49091        -1.58239
C         41.26736        39.72651        -1.54330
C         42.54243        41.77403        -0.96704
C         41.35247        42.35220        -0.40389
C         42.61114        44.37460         0.28821
C         41.38729        43.65063         0.20345
C         42.66875        45.63427         0.92033
C         41.43841        46.25211         1.35013
C         42.73026        48.28009         2.01967
C         41.43163        47.60485         1.78077
C         42.72492        49.73911         2.35719
C         41.44820        50.51483         2.33751
C         42.60896        52.56218         1.22145
C         41.46692        51.96385         2.00034
C         42.77951        54.07617         1.43026
C         41.59636        54.77304         1.52184
C         42.80746        56.95859         1.29235
C         41.55910        56.20090         1.20401
C         42.78437        58.33464         1.07498
C         41.59075        58.94365         0.46740
C         42.79673        61.24252         0.56043
C         41.58439        60.44090         0.24418
C         42.78834        62.63730         0.37000
C         41.48549        63.31278         0.21049
C         42.80195        65.47876        -0.22406
C         41.50211        64.78426        -0.10076
C         42.82557        66.81761        -0.69894
C         41.58959        67.41060        -1.24197
C         42.80699        69.64686        -1.40127
C         41.56343        68.89164        -1.56812
C         42.75920        71.08649        -1.89285
C         41.47383        71.81321        -1.54884
C         42.76858        73.85905        -1.12873
C         41.51185        73.20954        -1.20244
C         44.98336        33.83991        -3.91115
C         43.76052        34.43818        -3.55178
C         44.77714        36.66370        -3.90497
C         43.62284        35.83666        -3.48550
C         44.73106        38.16125        -3.65512
C         43.43728        38.81781        -3.17756
C         44.88014        40.64596        -2.15143
C         43.64933        39.97173        -2.22337
C         44.94116        41.90927        -1.48697
C         43.76763        42.48380        -0.96277
C         45.12429        44.33738         0.01727
C         43.78323        43.93261        -0.55025
C         45.18756        45.68069         0.71888
C         43.91291        46.35642         1.01061
C         45.19733        48.39097         1.49721
C         43.97779        47.67803         1.48397
C         45.22785        49.76546         2.03757
C         43.92801        50.49075         1.96906
C         45.64106        52.80273         1.37989
C         43.79374        51.65488         1.29965
C         45.37394        54.12701         1.54752
C         44.09677        54.80410         1.04568
C         45.24047        56.99570         1.72311
C         44.06346        56.27046         1.48869
C         45.22860        58.47270         1.80474
C         43.93537        59.18185         1.39007
C         45.19618        61.32694         0.97823
C         43.98763        60.59663         0.93861
C         45.21393        62.71723         0.68801
C         43.98642        63.39449         0.43798
C         45.22277        65.55807         0.13209
C         43.98963        64.82032         0.13958
C         45.22686        66.94680        -0.25218
C         44.01150        67.57179        -0.69436
C         45.24828        69.68166        -1.11118
C         44.00023        68.97887        -1.09433
C         45.28952        71.05870        -1.73586
C         44.01625        71.82411        -1.57186
C         45.26053        73.93812        -1.32666
C         44.01617        73.20083        -1.34691
C         46.12867        34.59122        -4.14102
C         47.22441        36.80866        -4.22117
C         46.09610        36.01462        -4.07279
C         47.22069        38.20765        -3.89358
C         46.02032        38.84025        -3.45432
C         47.31782        40.74858        -2.68100
C         46.08599        40.08307        -2.77111
C         47.49751        41.94470        -1.78590
C         46.20824        42.62247        -1.38243
C         47.61935        44.45723        -0.50680
C         46.30568        43.80724        -0.69880
C         47.65331        45.86242         0.15305
C         46.42026        46.47168         0.63246
C         47.66366        48.58327         1.01062
C         46.42512        47.82939         1.00665
C         47.84644        49.78252         1.93815
C         46.51816        50.50264         2.24014
C         47.83247        52.72788         2.55986
C         46.46654        52.04218         2.41118
C         47.80180        54.24310         2.44588
C         46.65349        54.91002         1.68810
C         47.71544        57.10905         1.98125
C         46.52575        56.38497         1.88492
C         47.71953        58.55032         1.78647
C         46.50606        59.19770         1.62567
C         47.75700        61.39756         1.18219
C         46.47013        60.59148         1.13634
C         47.64583        62.85928         1.09254
C         46.45280        63.48181         0.75829
C         47.64661        65.66803         0.54158
C         46.43220        64.91729         0.50925
C         47.65867        67.04149         0.14294
C         46.44083        67.68365        -0.24769
C         47.67270        69.79033        -0.75182
C         46.44299        69.05985        -0.70610
C         47.69205        71.15633        -1.12016
C         46.50506        71.85035        -1.37213
C         47.75857        73.99629        -1.42947
C         46.48587        73.28273        -1.38930
C         48.43276        38.93654        -3.86532
C         49.71927        40.98303        -3.28448
C         48.49161        40.22169        -3.29838
C         49.78173        42.28905        -2.80804
C         48.48744        42.94775        -2.37765
C         49.85162        44.85763        -1.51748
C         48.71306        44.10463        -1.43120
C         49.84864        46.25622        -1.03167
C         48.77170        46.75028        -0.16669
C         50.17531        48.68586         0.55190
C         48.80422        48.04230         0.39003
C         50.17056        50.13936         0.99866
C         48.99534        50.72201         1.58248
C         50.31809        52.73941         2.13880
C         49.04378        52.00931         2.10791
C         50.34051        54.31065         2.37992
C         49.05238        55.02329         2.30161
C         50.20903        57.18792         2.27259
C         48.97374        56.39307         2.14062
C         50.17606        58.64734         2.06339
C         48.98738        59.29987         1.80709
C         50.14898        61.49724         1.89560
C         48.98118        60.75113         1.70067
C         50.08445        62.98731         1.90708
C         48.83434        63.66339         1.43037
C         50.10038        65.72434         0.80395
C         48.88196        65.05751         0.92809
C         50.11964        67.10023         0.41429
C         48.89860        67.74552         0.13628
C         50.20563        69.89502        -0.30676
C         48.88653        69.18496        -0.17263
C         50.25626        71.17707        -1.07271
C         48.96751        71.86788        -1.36566
C         50.25476        74.05497        -1.78544
C         48.94804        73.33820        -1.49690
C         50.96396        43.06815        -2.81109
C         52.19205        45.14823        -2.28540
C         51.01223        44.37640        -2.26519
C         52.28421        46.45894        -1.73830
C         51.02468        47.13740        -1.32367
C         52.45581        49.02278        -0.39504
C         51.05962        48.54367        -0.71115
C         52.56424        50.22808         0.32021
C         51.37633        50.84101         0.92601
C         52.68093        52.90117         1.36779
C         51.49319        52.16103         1.48610
C         52.66960        54.32985         1.49616
C         51.53257        55.01208         1.90088
C         52.72161        57.27219         1.71220
C         51.53077        56.47283         2.09187
C         52.68839        58.66121         1.79967
C         51.46729        59.38419         2.34966
C         52.62320        61.55970         1.85964
C         51.41350        60.85188         2.00734
C         52.64331        63.00098         1.80492
C         51.37610        63.81921         1.95726
C         52.65236        65.74618         0.94609
C         51.38672        64.91226         0.86749
C         52.61658        67.06637         0.45886
C         51.39773        67.78658         0.24700
C         52.68718        69.83818        -0.38456
C         51.46001        69.13300        -0.17266
C         52.70624        71.24672        -0.73724
C         51.51400        71.94878        -1.01660
C         52.74490        73.98165        -1.47760
C         51.52451        73.31454        -1.38895
C         53.50057        47.10788        -1.56514
C         54.88352        48.96100        -0.64902
C         53.61206        48.37806        -0.89357
C         55.00018        50.18300         0.01787
C         53.82942        50.82559         0.47610
C         55.05460        52.97604         0.42971
C         53.98259        52.14822         1.17650
C         55.12631        54.38276         1.06211
C         53.80791        55.13592         0.88942
C         55.10548        57.26758         1.15614
C         53.90637        56.57569         1.33862
C         55.11959        58.70130         1.27939
C         53.87429        59.41134         1.51489
C         55.04368        61.57651         1.27761
C         53.82893        60.81879         1.56755
C         55.08084        62.95972         1.76533
C         53.83893        63.71790         1.76928
C         55.07966        65.89082         1.35406
C         53.85770        65.14553         1.42590
C         55.18082        67.04090         0.45618
C         53.86748        67.71754         0.04660
C         55.16251        69.82279        -0.35296
C         53.91490        69.15456        -0.23915
C         55.17964        71.21592        -0.69892
C         53.95474        71.91806        -0.88879
C         55.22074        73.95055        -1.46343
C         53.97582        73.30191        -1.26343
C         56.36117        50.75212         0.39263
C         57.54055        52.98886         0.40522
C         56.39310        52.26992         0.44602
C         57.56692        54.45509         0.46358
C         56.35202        55.16716         0.66844
C         57.57532        57.27225         0.81726
C         56.34426        56.56418         0.84054
C         57.60344        58.66995         1.13295
C         56.35193        59.37181         1.25431
C         57.61617        61.53951         1.59536
C         56.38549        60.83428         1.21365
C         57.57631        62.86131         1.99014
C         56.28117        63.44933         2.21872
C         57.56152        65.98644         1.60379
C         56.28666        65.55275         2.01008
C         57.61903        67.22841         0.89677
C         56.41614        67.83740         0.45790
C         57.64142        69.86307        -0.16637
C         56.39972        69.15932        -0.04477
C         57.64502        71.20217        -0.65943
C         56.41553        71.89055        -0.88490
C         57.69746        73.90563        -1.53527
C         56.43534        73.26595        -1.29870
C         58.76770        55.16431         0.37076
C         60.01544        57.30100         0.59750
C         58.80418        56.57542         0.57465
C         60.05792        58.67303         0.97852
C         58.82474        59.34871         1.27963
C         60.11410        61.48137         1.95942
C         58.80347        60.69308         1.98050
C         60.09743        62.96645         1.90793
C         58.82039        63.66164         2.17669
C         60.07686        65.86115         1.51821
C         58.80220        65.24771         1.95008
C         60.06869        67.21094         1.08690
C         58.87129        67.90466         0.75345
C         60.08951        69.91551        -0.07022
C         58.86918        69.23415         0.19900
C         60.08998        71.16064        -0.71502
C         58.87907        71.85138        -0.94100
C         60.17841        73.87857        -1.60650
C         58.89704        73.22574        -1.39134
C         61.27954        59.37232         1.02513
C         62.52759        61.58324         1.17501
C         61.37821        60.75050         1.50393
C         62.51884        62.94414         1.40558
C         61.28408        63.67359         1.70231
C         62.55000        65.78716         1.33453
C         61.30330        65.12243         1.56878
C         62.60901        67.18185         1.04439
C         61.34859        67.93482         1.01862
C         62.62788        69.84723        -0.10476
C         61.36046        69.32966         0.40448
C         62.60783        71.29541        -0.50700
C         61.36646        71.70504        -1.30621
C         62.65451        73.84034        -1.76650
C         61.36701        73.20761        -1.51343
C         63.75543        63.67496         1.31036
C         65.10266        65.76971         1.47419
C         63.78437        65.04227         1.34701
C         65.08333        67.17476         0.92128
C         63.82308        67.83817         0.72833
C         65.08081        69.77763        -0.19567
C         63.82878        69.17026         0.14970
C         65.11570        71.01761        -0.98721
C         63.82880        71.74019        -1.27000
C         65.13847        73.66992        -2.26634
C         63.83732        73.16282        -1.68364
C         66.27394        67.82860         0.69312
C         67.52505        69.85046        -0.05445
C         66.30910        69.16202         0.15165
C         67.56652        71.17085        -0.59325
C         66.37392        71.77038        -1.09388
C         67.59698        73.77165        -1.68196
C         66.38332        73.07016        -1.63441
C         68.77768        71.90710        -0.67176
C         68.78134        73.18923        -1.20349
O         33.74522        67.62052         0.80518
O         44.34392        59.05584         2.80934
O         49.12746        63.50720         2.89881
O         41.51023        51.50119         3.41169
O         49.71705        71.13933        -2.44175
O         47.78852        53.58714         3.73945
O         61.36671        69.13797         1.87744
O         30.27357        70.40102        -2.35434
O         49.44584        70.01471         0.94385
O         45.86892        49.84375         3.38399
O         27.57070        70.27137        -2.07962
O         41.26398        64.30011         1.29194
O         44.86839        52.04679         0.49661
O         37.76979        57.18029        -1.03315
O         31.92693        56.10382        -0.36260
O         26.40509        69.79064         1.19967
O         56.23563        64.59658         3.02444
O         45.27850        44.36313         1.44581
O         37.06452        64.85083        -2.30458
O         54.62213        66.86540        -0.88710
O         38.95678        72.88204        -2.32320
O         49.96456        47.08447        -2.33244
O         41.86180        59.51567        -0.87642
O         28.20240        66.86380        -1.62345
O         41.69190        67.86348        -2.62931
O         64.35571        70.84897        -2.28686
O         32.29254        65.21755         1.55035
O         31.87056        67.55266        -2.17224
O         42.86034        48.76782         3.42082
O         35.57570        52.45302         3.40718
O         47.31233        60.73952        -0.07206
O         58.85942        64.61723         3.26188
O         61.01955        60.93476         2.96237
O         50.57132        53.35843         3.43840
O         55.71463        61.35226        -0.00243
O         51.02600        56.80312         3.44805
O         48.04203        44.61324         0.86775
O         35.81189        66.96048        -2.34859
O         30.63208        61.86276         2.07030
O         44.52805        37.61572        -5.00569
O         27.92683        74.89335         0.86735
H         27.86274        74.25959         1.61082
O         65.12604        73.27807        -3.65725
H         64.94387        72.30933        -3.67223
O         39.49972        64.13667        -2.47177
H         38.65407        64.12404        -2.98338
O         36.50591        55.36220         3.04525
H         36.55008        54.58091         3.64769
O         43.69013        44.70097        -1.80605
H         42.89723        44.38669        -2.29060
O         51.45834        64.47013         3.23869
H         50.56095        64.42280         3.64697
O         33.80152        63.49201        -1.83509
H         33.81690        62.65137        -2.33803
O         58.53921        60.37015         3.38633
H         59.42306        60.24428         3.80708
O         50.53882        49.46882        -1.69462
H         50.01706        48.93317        -2.33927
O         66.17236        65.01310         0.89897
H         66.04999        64.99757        -0.07208
O         54.49793        51.84080         2.51737
H         53.73000        51.67018         3.10364
O         51.44841        64.19326        -0.40261
H         51.68424        64.83276        -1.10757
O         61.49460        71.08639        -2.61575
H         60.75389        71.40153        -3.17438
O         47.85883        43.50127        -3.56573
H         48.49825        44.10897        -3.99358
O         47.19627        54.82821         0.29427
H         46.44891        55.03489        -0.31326
O         34.74153        64.40093         1.57372
H         33.96684        64.56206         2.16459
O         42.83267        39.44101        -4.35162
H         43.04719        38.85220        -5.11301
O         37.92051        53.25433         3.74895
H         37.68329        52.52919         4.36557
O         40.35123        54.52423         3.50039
H         39.53380        54.16096         3.92164
O         37.78903        66.72622         0.66848
H         38.05514        67.60872         1.00136
O         62.61843        72.05426         0.73626
H         62.03264        71.60136         1.38065
O         53.49330        55.26414        -0.53877
H         52.66648        55.78367        -0.62464
O         37.57475        53.43145         0.08399
H         38.21013        53.90269        -0.51338
O         39.45037        55.29891        -0.80022
H         39.12192        55.95468        -1.46505
O         44.15981        54.83237        -0.41861
H         43.37187        55.32099        -0.74198
O         54.70625        53.00120        -0.96861
H         54.07212        53.73855        -1.13507
O         48.31686        49.18361         3.18687
H         47.50843        48.96976         3.71377
O         56.69146        50.25259         1.70574
H         56.00912        50.61513         2.32072
O         40.43213        49.97359         0.33339
H         39.62035        49.65959        -0.12004
O         55.26547        54.24956         2.49956
H         56.02081        53.65117         2.68180
O         51.63079        59.37643         3.81157
H         51.54668        58.43110         4.09697
O         50.24901        75.36850        -1.21666
H         50.24860        75.28364        -0.24150
O         48.11245        41.45523        -0.55944
H         47.47457        40.86596        -0.10596
O         42.72380        70.98110        -3.36412
H         43.64329        70.76282        -3.65765
O         42.17372        52.47625        -0.17525
H         42.93417        52.77668        -0.72204
O         50.81407        47.93068         1.61432
H         50.27334        48.05987         2.42597
O         45.71147        52.31101         3.60992
H         45.58410        51.45368         4.08678
O         35.46675        71.03651         0.83237
H         36.19819        70.42232         1.05706
O         27.15446        67.51301         1.82331
H         26.69739        68.27514         2.25293
O         45.43763        70.79922        -3.21081
H         46.28900        70.32469        -3.33438
H         22.91097        75.07847        -0.21548
H         25.42386        75.10516        -0.23079
H         27.90711        74.91567        -1.18412
H         30.46110        75.01059        -0.03781
H         32.94687        74.95412        -0.05656
H         35.36954        74.90706        -0.17944
H         37.72247        74.90433         0.06942
H         40.55103        74.80787        -0.06517
H         42.78559        74.93090        -0.87975
H         45.22360        75.03481        -1.25757
H         47.74088        75.09498        -1.49197
H         50.30104        74.20095        -2.90153
H         52.75936        75.04308        -1.76511
H         55.23125        75.00629        -1.77255
H         57.70349        74.96129        -1.84586
H         60.17389        74.95651        -1.83265
H         62.65135        74.89268        -2.09371
H         65.18846        74.78696        -2.23528
H         67.61937        74.78711        -2.10275
H         22.07603        69.17006         0.13161
H         20.83473        71.29846         0.11401
H         20.79827        73.78146        -0.01691
H         24.51703        64.90525         0.50250
H         23.30163        67.05888         0.26319
H         27.00884        60.59861         0.99452
H         25.78466        62.73825         0.91301
H         29.38970        56.55556         1.78341
H         28.23802        58.41711         1.07284
H         31.82455        52.01949         1.50109
H         30.72493        54.08190         2.00622
H         34.34010        47.82983         1.72295
H         33.10642        49.89871         1.67729
H         36.77797        43.64328         0.84211
H         35.55665        45.72376         1.44892
H         39.19138        39.71201        -0.95146
H         37.99641        41.64817        -0.00395
H         41.64589        35.80604        -2.62450
H         40.43811        37.71363        -1.75584
H         45.04227        32.74335        -3.95733
H         42.90586        33.80272        -3.27844
H         47.08293        34.08955        -4.35656
H         48.19078        36.33381        -4.44888
H         49.34785        38.47412        -4.26373
H         50.62760        40.51036        -3.68963
H         51.88376        42.63852        -3.23750
H         53.10377        44.69949        -2.70940
H         54.42524        46.60759        -1.89135
H         55.78714        48.43872        -0.99805
H         57.14545        50.37038        -0.30897
H         58.51053        52.47107         0.33698
H         59.71107        54.62281         0.20532
H         60.96180        56.77859         0.39278
H         62.19501        58.88283         0.66141
H         63.44198        61.10123         0.79845
H         64.69920        63.11313         1.25371
H         65.32796        65.83894         2.57721
H         67.22232        67.30973         0.89496
H         68.46877        69.36985         0.24331
H         69.70808        71.45719        -0.29720
H         69.72109        73.75655        -1.25492
