         661
 CSIRO Nanostructure Databank - Neutral Graphene Oxide Data Set
C          6.03775        31.81665         1.00725
C          6.00364        33.17833         1.02996
C          8.29077        27.52729         0.63815
C          8.43397        28.91677         0.51092
C          7.28982        29.71243         0.78733
C          8.49012        31.86781         0.69634
C          7.28055        31.11293         0.81537
C          8.48658        33.26288         0.84499
C          7.21743        33.94906         0.94972
C          8.38775        36.10156         0.91409
C          7.18490        35.33361         0.91296
C          8.34030        37.47636         0.70367
C         10.82478        23.21717         0.20907
C         10.81637        24.61972         0.34383
C          9.53454        25.29507         0.60583
C         11.15056        27.66487        -0.10956
C          9.25751        26.57100         0.18315
C         11.02544        28.96472         0.28670
C          9.70022        29.65282         0.14967
C         11.06543        31.89877         0.41195
C          9.72380        31.15740         0.30009
C         10.97292        33.30938         0.98847
C          9.71195        34.02133         0.93146
C         10.83699        36.21094         1.37322
C          9.66590        35.42578         1.07445
C         10.70703        37.60794         1.37736
C          9.52184        38.26655         0.83702
C         10.71423        40.51318         0.82658
C          9.57126        39.60286         0.47101
C         10.97617        41.67078        -0.07787
C         13.24574        18.92503        -0.55892
C         13.18490        20.30882        -0.24244
C         12.02840        21.08680        -0.28017
C         13.24597        23.15733         0.37697
C         12.03211        22.48408         0.08714
C         13.26919        24.55572         0.60441
C         12.06836        25.30486         0.39042
C         13.40855        27.43152         0.95230
C         12.26081        26.76738         0.24090
C         13.26955        28.86665         1.27462
C         12.16967        29.62881         0.90113
C         13.31302        31.74433         1.45210
C         12.16596        31.07541         1.06319
C         13.37931        33.21001         1.50567
C         12.13353        33.96762         1.34234
C         13.41957        36.05276         1.97358
C         12.19139        35.48804         1.28910
C         13.63045        37.41815         2.19339
C         11.74762        38.53069         1.78653
C         13.29168        40.43852         1.29906
C         11.96035        39.77566         1.25562
C         13.38746        41.72781         0.54121
C         12.18749        42.31776        -0.05591
C         13.44181        44.35256        -0.63685
C         12.29006        43.62089        -0.68458
C         13.59886        45.65388        -1.39194
C         15.78906        14.75465        -1.51030
C         15.73108        16.17186        -1.18660
C         14.51782        16.82234        -0.99243
C         15.70653        18.83433        -0.27903
C         14.45821        18.19196        -0.58541
C         15.66650        20.14506         0.38696
C         14.39588        20.93367         0.34644
C         15.67045        23.03367         1.09010
C         14.55209        22.43454         0.26152
C         15.64457        24.40908         1.33070
C         14.47295        25.18168         1.10168
C         15.72221        27.24988         1.85199
C         14.37612        26.55754         1.73840
C         15.71806        28.70586         2.04808
C         14.44612        29.52103         1.85849
C         15.74998        31.60169         1.71715
C         14.53104        30.99125         1.69562
C         15.87566        33.06653         1.97081
C         14.58305        33.81842         1.78053
C         15.77512        35.94302         1.16802
C         14.70117        35.28891         2.04284
C         15.86084        37.42399         1.19583
C         14.72962        38.16231         1.70255
C         15.78672        40.20745         0.66599
C         14.62672        39.63395         1.50315
C         15.90032        41.75164         0.81602
C         14.59518        42.37855         0.37082
C         15.84305        44.42927        -0.18191
C         14.63882        43.73175        -0.12619
C         15.82269        45.93543        -0.03660
C         14.66846        46.58102        -0.83136
C         15.44657        48.94981        -0.65549
C         14.51018        47.91400        -1.07045
C         15.76928        50.13837        -1.23367
C         18.21757        10.59198        -1.60299
C         18.22415        11.96392        -1.70256
C         16.99624        12.68425        -2.21733
C         18.24624        14.89956        -1.97676
C         16.95385        14.13664        -1.81581
C         18.21676        16.29029        -1.38018
C         16.97232        16.89764        -1.08279
C         18.17456        19.03693        -0.62798
C         16.92479        18.24455        -0.61779
C         18.19821        20.40168         0.03459
C         16.95528        20.84521         0.71932
C         18.22804        22.97814         1.27262
C         16.93202        22.27939         1.20081
C         18.19712        24.34288         1.81843
C         16.87045        25.07137         1.87330
C         18.19112        27.23248         1.99714
C         16.92072        26.55607         1.89301
C         18.18811        28.66373         1.92911
C         17.00844        29.39122         1.91503
C         18.26684        31.55356         1.29164
C         16.99075        30.81856         1.55429
C         18.28585        33.04013         1.27980
C         17.08022        33.72696         1.32734
C         18.29526        35.87992         0.75556
C         17.03585        35.14751         0.93838
C         18.28671        37.26746         0.67186
C         17.06469        38.02549         0.85653
C         18.24812        40.05632         0.00069
C         17.15168        39.52934         0.97379
C         18.40670        41.59373         0.11911
C         17.09472        42.34057         0.07212
C         18.26602        44.35465        -0.82897
C         17.07156        43.67477        -0.24732
C         18.35602        45.82870        -0.68236
C         17.18832        46.55995        -0.30445
C         18.40311        48.71466        -0.59798
C         17.31343        47.93006        -0.12959
C         18.29358        50.09025        -0.81756
C         17.03425        50.83309        -0.92963
C         18.31428        52.95719        -0.93737
C         17.07677        52.21094        -0.98143
C         18.33798        54.32562        -0.84424
C         20.46246         6.15582        -1.51926
C         20.19281         7.43177        -1.02777
C         19.21791         8.38550        -1.41757
C         20.64081        10.45976        -1.11329
C         19.37419         9.78035        -1.27126
C         20.62120        11.97532        -0.90384
C         19.41317        12.72049        -1.42572
C         20.66698        14.84096        -1.27278
C         19.44311        14.10612        -1.48210
C         20.68280        16.24654        -1.30318
C         19.44729        16.97708        -1.21565
C         20.64663        19.08657        -0.61079
C         19.46714        18.36682        -0.82640
C         20.68648        20.38179         0.04203
C         19.47282        21.00933         0.44369
C         20.70423        22.90567         1.51377
C         19.42720        22.29232         1.07204
C         20.70357        24.34263         1.96331
C         19.45382        25.11355         1.87574
C         20.72220        27.20912         2.08157
C         19.44760        26.50177         2.00111
C         20.68184        28.65901         2.36681
C         19.49260        29.36623         1.80722
C         20.74965        31.63713         1.78751
C         19.55902        30.82670         1.48218
C         20.74171        33.00972         1.50562
C         19.54252        33.69094         1.11908
C         20.79668        35.87558         0.95121
C         19.57493        35.09182         0.55241
C         20.78403        37.27790         0.74007
C         19.55245        37.98641         0.52581
C         20.79994        40.05719         0.05770
C         19.57727        39.36353         0.24680
C         20.82455        41.44176        -0.38661
C         19.51387        42.02576        -0.92411
C         20.81270        44.30182        -1.19142
C         19.50033        43.56552        -1.13117
C         20.80489        45.78631        -1.03510
C         19.57496        46.48796        -0.87552
C         20.69583        48.56451        -1.75161
C         19.72995        47.99057        -0.69234
C         20.65567        50.09174        -1.62924
C         19.51621        50.80686        -1.13951
C         20.76303        52.93155        -1.39429
C         19.54822        52.21384        -1.14320
C         20.83117        54.34244        -1.24513
C         19.61014        55.13309        -0.81712
C         20.77550        57.17166        -1.73845
C         19.48258        56.38814        -1.70721
C         20.77871        58.48153        -2.08796
C         22.90910         3.37931        -1.72086
C         21.73866         4.09868        -1.61126
C         23.01690         6.18823        -1.30181
C         21.73624         5.50802        -1.39365
C         23.14615         7.60893        -1.18093
C         22.06585         8.41643        -0.80011
C         23.11268        10.49382        -1.54350
C         21.87722         9.79505        -1.11367
C         23.12111        11.97642        -1.56878
C         21.89315        12.72428        -1.24893
C         23.18445        14.84653        -1.07414
C         21.90641        14.09980        -1.21835
C         23.25208        16.31277        -1.24883
C         21.95073        17.00274        -1.38827
C         23.18420        19.14613        -0.70081
C         21.92143        18.49031        -1.03772
C         23.16346        20.42771        -0.17601
C         21.93893        21.03233         0.24094
C         23.23356        23.12006         0.99697
C         21.99925        22.28428         1.03338
C         23.24442        24.46452         1.45414
C         22.02513        25.11048         1.97458
C         23.19752        27.34414         1.99127
C         21.95537        26.58681         2.00590
C         23.21271        28.74298         2.24972
C         21.94331        29.45166         2.57807
C         23.16519        31.70966         2.45672
C         21.83243        31.01103         2.64191
C         23.13714        33.13960         2.05476
C         21.98324        33.78478         1.66870
C         23.16724        35.98512         1.48400
C         21.97573        35.22345         1.37780
C         23.22811        37.33924         1.05448
C         22.01172        38.00747         0.73196
C         23.28952        40.02142         0.15475
C         22.03228        39.37879         0.34095
C         23.30532        41.37609        -0.42905
C         22.01945        42.09554        -0.55582
C         23.28195        44.30013        -0.51335
C         22.07741        43.52729        -0.96117
C         23.25231        45.80467        -0.63036
C         22.01405        46.50843        -1.06532
C         23.33067        48.49311        -1.59151
C         22.07337        47.89017        -1.46925
C         23.53714        49.77920        -2.19127
C         21.65872        50.86070        -2.18296
C         23.18938        52.86369        -2.01054
C         21.91048        52.23140        -1.87689
C         23.22680        54.26341        -1.83277
C         22.03187        54.99288        -1.51780
C         23.28011        57.14852        -1.94254
C         22.06966        56.49271        -1.32860
C         23.25985        58.53029        -2.20610
C         22.01017        59.24125        -2.24077
C         23.21568        61.30119        -2.74017
C         22.00302        60.60323        -2.51099
C         24.14488         4.05791        -1.74109
C         25.55839         6.07356        -1.85627
C         24.20700         5.43409        -1.57565
C         25.70414         7.54201        -1.51427
C         24.39935         8.31759        -1.68016
C         25.41497        10.46254        -0.72211
C         24.37376         9.76536        -1.24320
C         25.64294        11.88649        -1.01185
C         24.44571        12.65773        -1.46255
C         25.75735        14.79743        -1.50007
C         24.46728        14.10583        -1.14528
C         25.73957        16.26535        -1.07096
C         24.45295        16.97952        -1.18234
C         25.61921        18.95223        -0.18760
C         24.48602        18.50655        -1.14440
C         25.68545        20.45311        -0.02733
C         24.42686        21.25487        -0.25955
C         25.64976        23.23995         0.62176
C         24.41578        22.54443         0.51535
C         25.65154        24.61661         1.00332
C         24.42826        25.25100         1.36306
C         25.64132        27.39389         1.59357
C         24.41698        26.66264         1.67606
C         25.63733        28.80805         1.83324
C         24.42840        29.46157         2.14252
C         25.63667        31.67811         1.77337
C         24.44578        30.93780         2.34616
C         25.69422        33.14134         2.16799
C         24.40416        33.87109         2.24952
C         25.67381        36.03351         1.71402
C         24.40069        35.36149         1.97142
C         25.71210        37.35102         1.30172
C         24.47988        38.03935         0.96017
C         25.80416        40.03490         0.20273
C         24.49892        39.35942         0.45062
C         25.84715        41.50461         0.05173
C         24.61724        42.15069        -0.44503
C         25.76289        44.34178        -0.37051
C         24.58827        43.62370        -0.45843
C         25.72909        45.78423        -0.57114
C         24.55524        46.47680        -0.72039
C         25.83277        48.60736        -1.17733
C         24.51227        47.98122        -0.78807
C         25.89589        49.96002        -1.83513
C         24.56348        50.65191        -1.91015
C         25.74677        52.86522        -1.88918
C         24.50301        52.10951        -2.36281
C         25.71502        54.29306        -1.93095
C         24.48619        54.99267        -1.94788
C         25.72522        57.13625        -2.21850
C         24.48599        56.41785        -2.02814
C         25.69805        58.53473        -2.43841
C         24.48436        59.23426        -2.48043
C         24.42443        60.64174        -2.73317
C         26.96772         8.05947        -1.50512
C         28.11656        10.40380        -1.62963
C         27.29061         9.44364        -1.12707
C         28.17059        11.80385        -1.14484
C         26.93201        12.55768        -0.55919
C         28.23612        14.73839        -1.11302
C         26.95069        14.00499        -1.03148
C         28.12392        16.05219        -0.28129
C         26.91157        16.87293        -0.72264
C         28.12573        18.82494         0.34186
C         26.99569        18.39007        -0.61720
C         28.16428        20.38465         0.57785
C         26.85754        21.10029         0.24358
C         28.11593        23.25480         0.45894
C         26.87609        22.54121         0.41260
C         28.11791        24.66398         0.67482
C         26.87924        25.35451         0.97395
C         28.07903        27.57003         0.95900
C         26.85757        26.73177         1.24205
C         28.19768        28.76982         1.90271
C         26.89743        29.55174         1.87697
C         28.18342        31.64000         2.22293
C         26.91283        30.90974         1.98087
C         28.16931        33.13810         2.32756
C         26.86693        33.82974         2.18642
C         28.10740        36.04685         2.38404
C         26.96316        35.26810         1.74340
C         28.15282        37.44602         1.78980
C         27.00150        38.02579         1.27881
C         28.25643        40.19208         0.97773
C         27.07900        39.36478         0.67814
C         28.25261        41.58035         0.64477
C         27.01801        42.22220         0.19028
C         28.21410        44.36198        -0.04207
C         27.03256        43.66210        -0.09295
C         28.29454        45.76864        -0.49734
C         27.01226        46.48747        -0.78905
C         28.32716        48.64943        -1.22824
C         26.99672        47.95762        -0.97230
C         28.23035        50.15945        -1.06752
C         27.05390        50.79611        -1.38985
C         28.18176        52.97994        -1.39050
C         26.95192        52.22514        -1.54874
C         28.16661        54.36578        -1.62706
C         26.95418        55.04142        -1.88037
C         26.94008        56.43419        -2.09704
C         29.33061        12.50209        -1.24221
C         30.71483        14.65702        -1.04360
C         29.43918        13.90077        -0.66043
C         30.63469        16.14601        -0.72535
C         29.43669        16.81110        -0.37638
C         30.61569        18.94673        -0.35667
C         29.43443        18.20404        -0.14781
C         30.57653        20.42949        -0.41921
C         29.29803        21.13303        -0.12010
C         30.57170        23.26565         0.21428
C         29.34299        22.57872         0.19853
C         30.57140        24.65253         0.50182
C         29.35935        25.35778         0.67296
C         30.54892        27.50876         0.80696
C         29.37678        26.79819         0.88162
C         30.58562        28.93822         1.05727
C         29.41037        29.60951         1.52508
C         30.58616        31.78163         1.56573
C         29.43021        30.98493         1.77950
C         30.63341        33.17990         1.83308
C         29.42315        33.90258         2.11597
C         30.61738        36.05041         2.17795
C         29.41175        35.30174         2.17518
C         30.61864        37.46612         2.07310
C         29.39797        38.15928         1.79963
C         30.63504        40.30151         1.62082
C         29.41697        39.55707         1.47756
C         30.62315        41.72651         1.33665
C         29.43134        42.32414         0.80210
C         30.50041        44.61218         0.93718
C         29.54172        43.69619         0.19061
C         30.55936        46.03419         0.50591
C         29.48932        46.58325        -0.14883
C         30.65885        48.90393        -0.01813
C         29.37614        48.05062        -0.30281
C         30.65608        50.26349        -0.54264
C         29.45199        50.91851        -0.86566
C         29.39177        52.31572        -1.07376
C         31.81165        16.89804        -0.84650
C         33.09519        19.04115        -0.97142
C         31.81294        18.28949        -0.69133
C         33.06730        20.51582        -0.62809
C         31.84114        21.19278        -0.36850
C         33.06269        23.29375        -0.06854
C         31.83006        22.56664        -0.06625
C         33.10482        24.68376         0.24151
C         31.87099        25.38344         0.76868
C         33.04887        27.58475         0.47577
C         31.77741        26.81799         0.25230
C         33.01918        28.95193         0.62382
C         31.78365        29.64751         0.88497
C         33.06652        31.89682         1.02724
C         31.77419        31.11749         1.01685
C         33.10572        33.27890         1.54405
C         31.88393        33.89239         1.84868
C         33.20229        36.07655         2.27815
C         31.87988        35.29956         2.28851
C         33.10008        37.54061         2.13540
C         31.87275        38.19728         2.05507
C         33.07028        40.38937         1.90893
C         31.84085        39.64023         1.91743
C         33.01813        41.88372         2.11367
C         31.75394        42.50235         1.59200
C         32.94792        44.77733         1.86082
C         31.68043        43.97366         1.59560
C         32.92953        46.14387         1.21848
C         31.79084        46.79365         0.72972
C         31.84728        48.14956         0.31820
C         34.25689        21.22577        -0.65412
C         35.49532        23.35931        -0.46478
C         34.28729        22.62699        -0.39713
C         35.53093        24.74354        -0.21397
C         34.30517        25.38674         0.18076
C         35.60230        27.59212         0.25322
C         34.32399        26.83392         0.48311
C         35.42575        29.03879        -0.15885
C         34.32298        29.68283         0.68266
C         35.53053        31.96091         0.66076
C         34.34684        31.14623         0.95630
C         35.54680        33.32530         0.99035
C         34.35569        33.98778         1.49827
C         35.59454        36.11278         1.51850
C         34.41819        35.38055         1.78433
C         35.65657        37.56165         1.79125
C         34.35270        38.30053         2.07795
C         35.50668        40.48193         1.51411
C         34.29364        39.75268         1.85111
C         35.43011        41.87649         1.32818
C         34.23832        42.61910         1.58723
C         34.17935        43.98867         1.47462
C         36.74533        25.49068        -0.38130
C         37.99041        27.64554        -0.39116
C         36.81582        26.88256        -0.22370
C         38.03379        29.06612        -0.20945
C         36.73734        29.81947        -0.18858
C         38.02845        31.93765         0.47743
C         36.73440        31.26560         0.17655
C         37.99582        33.43550         0.24458
C         36.74868        34.08856         0.80673
C         37.99414        36.23679         0.76319
C         36.76915        35.46182         1.03688
C         37.90511        37.67055         0.75571
C         36.77925        38.35145         1.22303
C         36.68905        39.76304         1.19870
C         39.22842        29.76520        -0.13435
C         40.48449        32.05008        -0.04577
C         39.29925        31.19647         0.23624
C         40.47407        33.38300         0.15594
C         39.28153        34.10196         0.76618
C         39.18636        35.58809         0.51975
O         14.85499        29.11344         3.21555
O         22.99011        11.19309        -2.83882
O         21.65783        43.85690        -2.31758
O         19.79791        29.80477         0.43192
O         18.03386        20.28154        -1.41568
O         24.11388        41.49886        -1.66492
O         18.58770        43.93561        -2.20293
O         29.63566        20.85646        -1.50656
O         12.59923        38.11942         2.80568
O         35.30226        37.93212         3.15760
O          9.56643        30.51601        -1.02727
O         30.50983        44.45815         2.38767
O         32.63979        35.54789         3.52166
O         26.68061        39.34926        -0.75344
O         10.11224        27.07803        -0.82406
O         19.33670        41.44655        -2.17354
O         17.04006        21.10132         2.12878
O         21.47992        22.04992         2.39805
O         27.82004        45.89431        -1.88499
O         21.06860         7.84648         0.00254
O         17.40230        24.44847         3.07812
O         14.06227        40.44334         2.56644
O         24.02020        31.44432         3.63828
O         24.33156        34.82384         3.35598
O         17.50646        31.04104         0.15155
O         21.45809        24.52662         3.19772
O         16.23558        48.60309         0.47136
O         21.17486        28.91751         3.71181
O         38.73906        31.43359         1.63621
O         28.37615        20.61429         1.95412
O         28.23792        32.28463         3.54121
O         34.64197        30.14833         2.02734
O         29.51803        48.72162         0.93829
O         25.40650        12.20231        -2.45086
O         23.03480        45.12443         0.68189
O         21.94114        18.01872        -2.45294
O         13.50262        27.14835        -0.48169
O         32.29566        31.78475        -0.22076
O         26.45319         9.82648        -0.04693
O         22.53314        50.22591        -3.06777
O         35.21207        27.24947         1.60178
O         14.77143        20.23746         1.55736
O         15.98732        35.36537        -0.14063
O         36.68082        30.84735        -1.26230
O         23.91968        14.40553         0.16165
O         28.49473        15.12603        -2.48864
H         27.62338        15.26604        -2.93850
O         18.99150        41.91661         1.40637
H         18.27259        42.17279         2.02605
O         12.55844        35.75477        -0.12924
H         13.23633        35.09816        -0.40520
O         27.85507        36.15324         3.79930
H         28.66431        36.48616         4.23958
O         19.78101        55.62525         0.53910
H         20.15819        54.90314         1.08260
O         27.84855        18.26422         1.64909
H         28.08860        19.03552         2.27065
O         24.27866         8.38052        -3.15232
H         23.88039         9.24691        -3.39600
O         10.24458        41.16401         2.09000
H         10.15877        40.46027         2.76938
O         15.35070        39.91493        -0.67303
H         16.14932        39.84082        -1.26211
O         11.54232        32.13004        -0.94512
H         11.06787        31.48379        -1.52381
O         33.02154        45.03362         3.29612
H         32.09465        45.05372         3.62602
O         33.42495        18.89357        -2.36836
H         32.69488        19.28471        -2.89181
O         28.73602        48.40656        -2.59173
H         27.98107        48.68329        -3.16562
O         16.12901        42.07116         2.22899
H         15.30468        41.79838         2.71189
O         25.39235        31.72172         0.32373
H         26.25359        31.80073        -0.13848
O         24.59681        52.09050        -3.82895
H         23.81464        51.58143        -4.14373
O         25.79890         5.94336        -3.27523
H         25.23199         6.61549        -3.71761
O         27.85064        15.66941         1.07481
H         27.87636        16.49718         1.62060
O         13.80937        26.39517         3.06807
H         14.48938        25.98796         3.64518
O         34.91442        28.98500        -1.51433
H         35.24980        29.78866        -1.97826
O         17.83437        39.68358        -1.32022
H         18.41500        40.21832        -1.96492
O         22.22374        56.70828         0.11755
H         22.10791        57.66745         0.28496
O         27.36289        18.90952        -1.90454
H         26.60214        18.79946        -2.52086
O         30.16374        43.52293        -1.12663
H         29.49318        43.14540        -1.73503
O         20.23284        48.18364        -3.05447
H         20.86515        48.53755        -3.71479
O         15.15459        35.50939         3.41625
H         15.75197        34.75934         3.67201
O         29.43513        13.75340         0.77604
H         30.36572        13.55812         1.03006
O         20.50278        12.09014         0.56701
H         21.25456        11.60847         0.97321
O         31.79283        14.03890        -0.32592
H         32.60402        14.57286        -0.44894
O         24.73503        18.98927        -2.50302
H         23.95034        18.71497        -3.03561
O         33.00074        42.06879         3.56755
H         33.87751        41.79721         3.91258
O         31.58923        26.72629        -1.19231
H         31.64290        27.63148        -1.56541
O         24.49361        21.68051        -1.66988
H         24.65310        20.86300        -2.20690
O         15.00716        22.64131        -1.13585
H         14.88621        23.59099        -1.35385
O         17.04050        12.64419        -3.66661
H         17.25737        11.72840        -3.93982
O         28.40777        28.25355         3.23451
H         28.49435        29.00942         3.85254
O         25.24683        18.38603         1.08553
H         26.07289        18.33437         1.63669
O         18.43784        15.07768        -3.41895
H         18.07305        14.27138        -3.85739
O         37.97861        33.62387        -1.19591
H         37.31130        33.01301        -1.57823
O         17.52864        39.79121         2.33580
H         17.15190        40.66699         2.60409
O         24.27852        48.42738         0.59092
H         23.46116        47.98821         0.91264
O         13.94550        45.33258        -2.75597
H         14.75546        44.78054        -2.74807
O         20.40451        48.20289         0.58754
H         19.80869        47.89150         1.30094
O         16.20663        33.09931         3.44021
H         15.53924        32.54809         3.90546
O         15.50269        46.15324         1.37031
H         15.54093        47.12831         1.51608
O         27.36513        35.13225         0.33309
H         26.57232        34.91327        -0.20077
O         32.00295        25.47836         2.21131
H         32.06814        24.57248         2.57870
O         26.97941        12.53669         0.87607
H         27.79705        13.02830         1.15214
O         25.82652        14.84591        -2.97469
H         25.78704        13.90595        -3.28250
O         26.21401        49.66476        -3.26419
H         26.01214        50.49074        -3.76714
O         27.86695        28.14531        -0.37005
H         27.85509        27.41087        -1.01963
O         19.70303        34.91114        -0.90991
H         18.85134        34.55146        -1.24014
O         21.40423        31.34624         3.98673
H         22.17987        31.20997         4.57675
O         39.35963        33.95986         2.20455
H         39.30583        32.99217         2.40463
O         19.13036        55.99736        -3.04392
H         19.87111        55.47761        -3.41893
H          5.11104        31.23115         1.09272
H          5.04872        33.71409         1.13009
H          7.36711        27.15365         1.10855
H          6.33770        29.18963         0.96752
H          6.21898        35.85953         0.89138
H          7.38728        37.96144         0.44758
H          9.86614        22.68433         0.13062
H          8.82559        24.77237         1.26597
H          8.66089        40.07457         0.06994
H         10.11709        42.15096        -0.57045
H         12.32252        18.41712        -0.87792
H         11.07544        20.63297        -0.59191
H         11.39190        44.02977        -1.17130
H         12.62059        46.19511        -1.43425
H         14.84902        14.18040        -1.48810
H         13.57830        16.27171        -1.15018
H         13.65008        48.23173        -1.68372
H         15.13784        50.55934        -2.03037
H         17.28041        10.05533        -1.82358
H         16.06412        12.15476        -1.86914
H         16.13776        52.77689        -1.07376
H         17.39384        54.87618        -0.71241
H         19.68478         5.62673        -2.09186
H         18.30229         8.02337        -1.91166
H         18.65052        57.03020        -1.32606
H         19.82875        58.99053        -2.31519
H         22.88101         2.28866        -1.85011
H         20.77071         3.57994        -1.66967
H         23.18060        62.38117        -2.94104
H         21.04817        61.14641        -2.55523
H         25.07042         3.49589        -1.93047
H         26.35960         5.48316        -1.33906
H         26.64610        59.07566        -2.57559
H         25.35852        61.18825        -2.92743
H         27.80648         7.35976        -1.66861
H         28.82279        10.13776        -2.43108
H         29.10626        54.93640        -1.58784
H         27.89227        56.98361        -2.13797
H         30.23895        12.01357        -1.62938
H         30.89853        14.54471        -2.15101
H         31.60659        50.81491        -0.59297
H         30.30794        52.91442        -0.95956
H         32.75213        16.40240        -1.13399
H         33.93323        18.55430        -0.40475
H         33.84466        46.74359         1.34674
H         32.82720        48.63906         0.22112
H         35.19541        20.70577        -0.89625
H         36.42290        22.83462        -0.73850
H         36.31749        42.41596         0.96343
H         35.08188        44.54779         1.18108
H         37.64614        24.94450        -0.70093
H         38.93756        27.12168        -0.59348
H         38.77656        38.24925         0.41271
H         37.55907        40.33196         0.83626
H         40.17628        29.21464        -0.23951
H         41.38199        31.55898        -0.45306
H         41.38142        33.96787        -0.06274
H         40.09834        36.17235         0.32012
