         480
 CSIRO Nanostructure Databank - Neutral Graphene Oxide Data Set
C         37.66302        50.18561        -0.40623
C         36.54487        50.88066        -0.86804
C         37.61056        52.97440        -0.29512
C         36.51928        52.27509        -0.81904
C         40.01234        48.74475         0.72851
C         39.99254        50.14507         0.52173
C         38.77035        50.87313         0.12125
C         39.91738        52.98293         0.83811
C         38.73718        52.29073         0.17131
C         40.00816        54.48331         0.66707
C         42.44947        48.71898         0.88581
C         41.21049        48.05904         0.93212
C         42.44455        50.14367         0.70118
C         41.20685        50.84291         0.59275
C         42.44957        53.05020         0.82817
C         41.21067        52.32312         0.29879
C         42.45871        54.48164         0.33161
C         41.17579        55.14959         0.48605
C         44.96132        45.97393         1.56996
C         43.79289        46.65980         1.48663
C         44.91380        48.71398         0.77643
C         43.73743        48.04901         1.08320
C         44.84117        50.03168         0.06090
C         43.67331        50.83030         0.55586
C         44.94920        52.95500         0.00487
C         43.73495        52.28689         0.57524
C         44.80726        54.32811        -0.62827
C         43.61637        55.11303        -0.09026
C         44.90943        57.17432        -0.33221
C         43.70319        56.54120        -0.19924
C         47.57048        44.52266         1.49768
C         47.51133        45.89231         1.23085
C         46.25898        46.65182         1.46088
C         47.43487        48.70287         0.38495
C         46.22912        48.11946         1.02342
C         47.38294        50.01261        -0.14086
C         46.14502        50.78742        -0.09256
C         47.23432        52.83571        -1.11950
C         46.11408        52.12286        -0.39150
C         47.33586        54.32772        -0.77224
C         46.14718        55.05068        -0.57949
C         47.40328        57.16639        -0.45022
C         46.15469        56.46430        -0.43098
C         47.47602        58.58210        -0.20545
C         49.95837        44.47338         1.05012
C         48.77040        43.81588         1.38357
C         49.92677        45.87840         0.79987
C         48.68925        46.58275         0.82225
C         49.84912        48.57759        -0.08901
C         48.65305        47.96523         0.39636
C         49.78902        49.92789        -0.54235
C         48.58109        50.64139        -0.57590
C         49.82778        52.85138        -0.99949
C         48.55116        52.06229        -1.05073
C         49.83669        54.32818        -0.92245
C         48.59201        55.02974        -0.84296
C         49.83274        57.22096        -0.93064
C         48.59193        56.45462        -0.71388
C         49.88870        58.64701        -0.58326
C         48.66205        59.27476        -0.22673
C         52.37879        41.56525         0.89718
C         51.23213        42.29097         0.89402
C         52.41601        44.42971         0.87215
C         51.22717        43.74049         0.96946
C         52.44993        45.93406         0.88893
C         51.14270        46.57424         0.47271
C         52.35795        48.40443        -0.70332
C         51.10734        47.86938        -0.01172
C         52.35765        49.92417        -0.84439
C         51.05307        50.64189        -0.86265
C         52.34432        52.83952        -0.47532
C         51.04292        52.10929        -0.55616
C         52.30848        54.30466        -0.65819
C         51.10358        54.98627        -0.82862
C         52.40007        57.20831        -0.69688
C         51.16408        56.45798        -0.98455
C         52.37190        58.60406        -0.68977
C         51.13033        59.33087        -0.62634
C         52.37968        61.43192        -0.27575
C         51.18864        60.75375        -0.45922
C         54.99344        40.08683         1.17424
C         54.95625        41.47042         0.97132
C         53.67642        42.20500         1.14369
C         54.95005        44.38464         0.63336
C         53.69548        43.72828         1.05999
C         54.92011        45.78276         0.31704
C         53.69942        46.52048         0.26611
C         54.89101        48.56413        -0.43740
C         53.67315        47.83988        -0.19531
C         54.86108        49.97895        -0.66788
C         53.61930        50.69738        -0.67031
C         54.81348        52.86635        -1.08247
C         53.59555        52.08316        -0.67942
C         54.86602        54.25213        -0.46029
C         53.56346        55.02484        -0.38354
C         54.85502        57.16070        -0.33429
C         53.62768        56.49282        -0.47169
C         54.89376        58.60210        -0.37084
C         53.67319        59.36473        -0.82064
C         54.85788        61.46249        -0.05267
C         53.63344        60.78088        -0.30093
C         54.89260        62.87494         0.16462
C         57.42150        40.11446         1.21791
C         56.21193        39.41736         1.30716
C         57.41719        41.48964         0.83943
C         56.16391        42.19135         0.75161
C         57.32597        44.28502         0.00027
C         56.11054        43.61093         0.47322
C         57.34078        45.74212        -0.10352
C         56.14816        46.45803        -0.02918
C         57.38044        48.54430        -0.51415
C         56.13517        47.87166        -0.31674
C         57.35538        49.97836        -0.85617
C         56.08468        50.73592        -0.77994
C         57.36877        52.88424        -1.19059
C         56.09558        52.10698        -0.91635
C         57.33553        54.33724        -0.73679
C         56.12855        55.01518        -0.54616
C         57.33300        57.09987        -0.14116
C         56.11010        56.41971        -0.28833
C         57.29824        58.54197         0.19521
C         56.06656        59.30055        -0.11392
C         57.32911        61.44851         0.15654
C         56.09763        60.73999        -0.01125
C         57.33309        62.87766         0.25631
C         56.07680        63.55390         0.29786
C         59.98984        37.38701         1.99468
C         58.80526        38.01301         1.88043
C         59.97840        40.18617         1.20149
C         58.70779        39.46486         1.57116
C         59.91223        41.54080         0.62397
C         58.66419        42.16420         0.57915
C         59.90034        44.31720         0.44876
C         58.64695        43.54744         0.07283
C         59.87030        45.79437         0.08176
C         58.62147        46.38125        -0.56891
C         59.86872        48.56031        -0.65728
C         58.60840        47.88198        -0.46654
C         59.91146        50.04345        -0.42591
C         58.63501        50.73329        -0.85146
C         59.86554        52.90529        -0.82570
C         58.56621        52.20219        -0.52840
C         59.82617        54.30820        -0.76068
C         58.57011        55.02383        -0.61852
C         59.82496        57.12343        -0.24462
C         58.57439        56.42025        -0.31102
C         59.90990        58.52998         0.34346
C         58.58699        59.29005         0.37310
C         59.79499        61.46708         0.08133
C         58.58769        60.76164         0.17828
C         59.80891        62.90184         0.16460
C         58.57126        63.59422         0.32166
C         59.80005        65.69356         0.57904
C         58.61395        65.01080         0.51269
C         62.66266        35.96684         2.16200
C         62.60374        37.46055         2.02328
C         61.26405        37.98290         1.49903
C         62.45764        40.15566         0.70017
C         61.22579        39.39378         1.00536
C         62.37918        41.42327         0.16221
C         61.13898        42.19183         0.20924
C         62.35671        44.32513        -0.27021
C         61.16586        43.58895         0.02116
C         62.39281        45.72341        -0.39084
C         61.14055        46.49400        -0.25848
C         62.29328        48.47560        -1.39018
C         61.06021        47.87368        -0.76982
C         62.28042        50.01236        -1.40637
C         61.10153        50.76309        -1.00393
C         62.32497        52.93020        -1.09325
C         61.08735        52.18355        -1.00659
C         62.27696        54.33384        -0.95605
C         61.04968        55.03092        -0.77034
C         62.27098        57.16914        -0.51600
C         61.01992        56.44563        -0.52451
C         62.21887        58.62423        -0.62053
C         61.02540        59.36476        -0.24194
C         62.29134        61.49181        -0.26316
C         61.04032        60.74522        -0.14940
C         62.28561        62.93782        -0.07307
C         61.04388        63.62227         0.16216
C         62.29416        65.73802         0.53841
C         61.05984        65.03246         0.41656
C         62.35095        67.12424         0.93755
C         64.98578        35.86569         1.40628
C         63.79310        35.25261         1.91155
C         64.93809        37.26516         1.09681
C         63.78801        38.02185         1.26485
C         64.94753        40.08929         0.25713
C         63.74884        39.45579         0.87395
C         64.85622        41.29054        -0.66055
C         63.55294        42.07055        -0.49638
C         64.87352        44.28100        -0.74162
C         63.57748        43.56953        -0.64561
C         64.86808        45.69978        -0.75883
C         63.60715        46.43407        -0.68266
C         64.80791        48.57752        -0.91014
C         63.58789        47.83099        -0.89806
C         64.83021        49.97965        -1.05159
C         63.63007        50.77494        -1.35180
C         64.77687        52.90386        -0.77120
C         63.60101        52.23356        -1.06492
C         64.83872        54.37033        -0.78603
C         63.52825        55.10705        -0.94950
C         64.73702        57.21064        -0.28020
C         63.49473        56.52953        -0.59255
C         64.74030        58.59638        -0.19871
C         63.55730        59.36672        -0.57829
C         64.78966        61.49381        -0.40737
C         63.49629        60.80647        -0.32164
C         64.76669        62.99948        -0.32773
C         63.48729        63.66468        -0.05894
C         64.77730        65.72241         0.43251
C         63.53185        65.05264         0.30592
C         64.81558        67.10984         0.92817
C         63.52596        67.77524         1.14494
C         67.31071        32.93658         0.90064
C         66.16067        33.67169         1.16446
C         67.40405        35.72115         0.78523
C         66.17832        35.08644         1.12151
C         67.47752        37.21669         0.91166
C         66.16813        37.84937         0.48122
C         67.40716        40.03301        -0.13419
C         66.16697        39.26574         0.01827
C         67.37284        41.40593        -0.43145
C         66.12833        42.12583        -0.54998
C         67.36537        44.22842        -0.84624
C         66.10909        43.52704        -0.72187
C         67.32452        45.66776        -1.32609
C         66.08166        46.43047        -0.88048
C         67.27804        48.58004        -0.63879
C         66.07447        47.85078        -0.81055
C         67.29372        49.98833        -0.45218
C         66.09469        50.71823        -0.89697
C         67.22683        52.90176        -0.06072
C         66.08363        52.22268        -0.71864
C         67.15444        54.27908         0.21854
C         65.97271        55.06585        -0.13519
C         66.97940        57.04792         0.98672
C         65.90685        56.42254         0.10378
C         67.00431        58.58178         0.98727
C         65.85144        59.34581         0.42793
C         67.14386        61.46856         0.36665
C         66.00424        60.78404         0.07757
C         67.29156        62.88066        -0.20061
C         66.02510        63.67210        -0.02331
C         67.28994        65.75464         0.22441
C         66.02951        65.03803         0.22622
C         67.21649        67.23603        -0.05002
C         66.10317        67.90152         0.76932
C         67.22713        70.08991         0.54928
C         66.09924        69.38808         0.74617
C         69.53194        31.38603        -0.28147
C         69.76399        32.72663         0.36696
C         68.51256        33.55773         0.53621
C         69.80232        35.65776         0.13065
C         68.56493        34.97650         0.47098
C         69.82220        37.10018         0.01014
C         68.67291        37.84564         0.25082
C         69.81228        39.89898        -0.66740
C         68.71407        39.35996         0.23515
C         69.86191        41.41289        -0.59068
C         68.62814        42.12338        -0.59028
C         69.86198        44.26793        -0.97366
C         68.57780        43.53739        -0.80991
C         69.85943        45.71950        -0.71840
C         68.62392        46.43515        -1.06651
C         69.74930        48.51406        -0.09423
C         68.58120        47.90034        -0.73319
C         69.59652        49.87971         0.43529
C         68.41367        50.67858         0.02337
C         69.55301        52.76489         0.72672
C         68.42212        52.11781         0.22462
C         69.54205        54.22046         0.92478
C         68.31960        54.98907         0.66668
C         69.53405        57.14561         0.72704
C         68.33310        56.39580         0.76076
C         69.53589        58.55891         0.69053
C         68.33423        59.27825         1.28288
C         69.64678        61.47942         0.75257
C         68.32973        60.79604         0.97139
C         69.69953        62.92179         0.38516
C         68.51830        63.63029         0.24308
C         69.77439        65.76578         0.35676
C         68.50541        65.06637         0.23084
C         69.79484        67.18349         0.41614
C         68.56472        67.95367         0.10661
C         69.77296        70.05918         0.94701
C         68.55279        69.43253         0.37453
C         69.75377        71.39176         1.39112
C         71.78963        31.38668        -1.16720
C         70.53490        30.74103        -0.93550
C         71.95066        32.72795        -0.85940
C         70.91846        33.47833        -0.25013
C         72.19604        35.60621        -0.42491
C         70.97007        34.90266        -0.16276
C         72.25260        36.97377        -0.44948
C         71.07860        37.77462        -0.30777
C         72.32288        39.91669        -0.52137
C         71.12481        39.17983        -0.44345
C         72.31336        41.30432        -0.61559
C         71.11250        42.05250        -0.64151
C         72.29319        44.29673        -0.24448
C         71.16794        43.52615        -0.79462
C         72.20975        45.63451        -0.05020
C         71.00256        46.39621        -0.32383
C         72.13857        48.54114         0.41506
C         70.94841        47.82415        -0.00010
C         72.11258        49.84686         0.78197
C         70.84556        50.57655         0.93058
C         72.01258        52.81078         0.49944
C         70.85318        52.08588         1.15285
C         72.03199        54.15239         0.42302
C         70.88226        54.97274         0.87225
C         71.82174        57.14057        -0.22632
C         70.91476        56.49814         0.79133
C         71.78777        58.48776        -0.30372
C         70.73580        59.25382         0.36227
C         72.06633        61.37106         0.37077
C         70.85794        60.66469         0.51601
C         72.12819        62.77013         0.43465
C         70.96889        63.57709         0.44420
C         72.19450        65.75029         0.62999
C         70.98895        65.02803         0.45983
C         72.19191        67.12501         0.77441
C         70.99356        67.87822         0.69417
C         72.14536        69.96904         1.45625
C         70.98128        69.31598         0.99578
C         72.11647        71.29719         1.86823
C         70.91433        72.01062         1.84957
O         61.15466        38.23894         0.06285
O         50.49880        56.91012        -2.20716
O         58.11047        50.28998        -2.11500
O         64.70921        40.33357         1.66493
O         44.79600        52.88183         1.46621
O         59.48320        40.21175         2.58661
O         60.50909        46.55995         1.14096
O         54.22117        54.42229         0.81999
O         66.41490        51.61960        -2.02674
O         57.80724        58.87562         1.55681
O         64.87660        62.27874        -1.65240
O         68.78165        68.91572        -0.99398
O         53.74160        43.03523         2.35698
O         66.03535        38.13583        -0.93618
O         68.86357        47.43470        -2.12529
O         69.91176        49.95260         1.88641
O         58.00809        43.67585        -1.20789
O         49.33016        52.28649        -2.27739
O         51.70638        50.31728        -2.13178
O         64.42589        54.89294        -2.09792
O         63.22739        42.67932        -1.79240
O         62.94253        50.49705        -2.61907
O         46.44756        47.74064         2.42781
O         62.90423        59.05122        -1.84727
O         70.69481        43.92007        -2.13554
O         68.98082        61.47516         2.10114
O         51.56068        52.43038         0.75104
O         65.96541        59.10021         1.88207
O         65.81155        67.30148         2.05277
O         70.28632        54.61367         2.14322
O         57.57350        52.91736        -2.62188
H         56.71407        53.17119        -3.02992
O         62.22085        48.04982        -2.78653
H         62.68002        48.74315        -3.31785
O         69.40786        39.57555        -2.02989
H         70.03325        40.01213        -2.64519
O         44.50292        49.68607        -1.34798
H         44.38401        50.52701        -1.84101
O         58.33385        52.32264         0.90021
H         58.98827        51.74357         1.35880
O         64.87052        40.74201        -1.99858
H         64.47117        41.42285        -2.58925
O         60.31715        58.32471         1.73297
H         59.48004        58.24433         2.25068
O         52.27508        47.84140        -2.04897
H         51.86034        48.53577        -2.61725
O         70.20159        32.41767         1.75666
H         71.00827        31.86377         1.68101
O         58.79384        46.06462        -1.98765
H         58.01372        46.40311        -2.47506
O         53.85706        59.51955        -2.29087
H         53.02920        59.91206        -2.64316
O         67.58201        37.52635         2.36106
H         68.27475        36.94019         2.73545
O         66.80025        67.35613        -1.43682
H         67.39757        68.02333        -1.85452
O         67.18454        45.55895        -2.77385
H         67.60286        46.36687        -3.15487
O         52.58683        46.29848         2.31335
H         52.00581        45.70475         2.83521
O         54.68085        53.14008        -2.53901
H         54.49665        52.28370        -2.98350
O         68.98850        39.78218         1.60448
H         68.41087        39.23539         2.19378
O         60.00759        50.17907         1.04690
H         60.15828        49.28801         1.43270
O         71.47093        56.91320         2.08105
H         71.00695        56.38024         2.76675
O         46.82365        52.79859        -2.53032
H         47.66169        52.83271        -3.05449
O         66.61621        56.65309         2.34381
H         66.99354        57.32843         2.95062
O         39.75142        52.70514         2.24713
H         40.58940        52.96628         2.69796
O         41.25116        52.48142        -1.14075
H         40.43565        52.08284        -1.51321
O         68.49636        59.10181         2.71535
H         68.94110        59.91956         3.04845
O         62.67346        38.02159         3.38144
H         63.55852        37.81208         3.74794
O         71.01789        52.24522         2.58602
H         70.39602        51.61039         3.00713
O         42.34237        53.13941         2.27698
H         43.25090        53.32492         2.61106
O         44.47876        54.11289        -2.02919
H         45.27777        53.72749        -2.47205
O         67.51303        62.68940        -1.64149
H         66.62264        62.51901        -2.04578
O         59.88804        44.24197         1.90286
H         60.39708        45.02236         2.22814
H         37.67605        49.08851        -0.46959
H         35.68793        50.32753        -1.27680
H         37.57530        54.07192        -0.25260
H         35.64135        52.82460        -1.18584
H         39.07147        48.17718         0.72907
H         39.08283        55.07002         0.77599
H         41.16821        46.97222         1.08839
H         41.13513        56.24452         0.38136
H         44.93503        44.88616         1.72474
H         42.84974        46.11338         1.62493
H         44.91941        58.27203        -0.34316
H         42.80066        57.15314        -0.06506
H         46.67047        43.98244         1.81961
H         46.56254        59.12928         0.06023
H         48.77195        42.74030         1.60320
H         48.64969        60.34274         0.02942
H         52.34285        40.48665         0.68726
H         50.27776        41.77167         0.72984
H         52.32625        62.51033        -0.07181
H         50.25433        61.32943        -0.43013
H         54.05948        39.52737         1.32023
H         53.95638        63.44805         0.18215
H         56.20431        38.34638         1.54938
H         56.04406        64.64472         0.41597
H         60.01154        36.34588         2.34891
H         57.88882        37.47994         2.17378
H         59.77086        66.77815         0.74667
H         57.68005        65.57492         0.63431
H         61.78821        35.45199         2.58418
H         61.41480        67.66783         1.12326
H         63.78250        34.17111         2.10572
H         63.51815        68.81202         1.50890
H         67.26417        31.84295         0.99153
H         65.23878        33.13234         1.41720
H         67.18069        71.18894         0.52629
H         65.15021        69.92043         0.91031
H         68.57365        30.87283        -0.12018
H         68.81778        71.96600         1.36709
H         72.59325        30.83968        -1.67819
H         70.37862        29.72576        -1.32786
H         72.87326        33.22852        -1.18559
H         73.12259        35.03802        -0.58056
H         73.21818        37.45940        -0.64575
H         73.29352        39.40504        -0.45835
H         73.27365        41.83563        -0.66533
H         73.19719        43.75945         0.07680
H         73.07666        46.15086         0.38224
H         73.11293        48.03927         0.34892
H         73.05620        50.37089         0.99007
H         72.87505        52.23392         0.13415
H         72.89237        54.66484        -0.03226
H         72.57892        56.55889        -0.77110
H         72.50442        59.02867        -0.93943
H         73.00353        60.81068         0.24432
H         73.11946        63.24298         0.39900
H         73.15035        65.21290         0.69313
H         73.15101        67.63068         0.94526
H         73.10050        69.43011         1.50438
H         73.03847        71.78013         2.21992
H         70.88442        73.05656         2.18368
