         661
 CSIRO Nanostructure Databank - Neutral Graphene Oxide Data Set
C          6.12588        31.73411         1.16246
C          6.19373        33.08676         1.32195
C          8.22062        27.34774        -0.15192
C          8.07277        28.54164         0.51590
C          7.04512        29.55500         0.58240
C          8.52780        31.64952         0.58901
C          7.27574        30.91833         0.82392
C          8.51480        33.04663         0.51683
C          7.39458        33.82225         0.99690
C          8.65528        35.97014         0.87147
C          7.47458        35.20180         1.18724
C          8.86684        37.26079         1.29539
C         10.75248        23.04300        -0.38872
C         10.66900        24.46281        -0.49001
C          9.53752        25.20359        -0.17578
C         10.72724        27.34510        -0.35180
C          9.52728        26.65392        -0.21139
C         10.74435        28.82165        -0.62523
C          9.92565        29.62631         0.35445
C         10.97598        31.71208        -0.24264
C          9.72369        30.95999         0.14424
C         10.77610        33.10734        -0.70249
C          9.58843        33.79744        -0.18456
C         10.85327        36.05871        -0.44434
C          9.62592        35.30056        -0.03086
C         11.05003        37.45455         0.01666
C         10.20229        37.96144         1.16155
C         11.18138        40.24540         0.56684
C         10.18953        39.45913         1.15083
C         11.18527        41.64068         0.95548
C         13.26875        18.89008         0.16206
C         13.21691        20.18861        -0.36774
C         12.03130        20.94718        -0.27711
C         13.09446        22.96129        -1.29124
C         11.90913        22.29839        -0.67636
C         13.10016        24.46326        -1.31427
C         11.88268        25.21342        -0.91170
C         13.19975        27.36992        -1.00345
C         12.05505        26.61472        -0.34895
C         13.23645        28.77482        -1.05714
C         12.07200        29.48907        -0.77114
C         13.19911        31.63717        -1.61531
C         11.98876        30.92805        -1.05996
C         13.15454        33.17681        -1.71950
C         12.03970        33.80463        -0.88676
C         13.25857        36.01261        -1.31452
C         12.09578        35.31236        -0.80428
C         13.17231        37.51635        -1.43222
C         12.41154        38.11053        -0.16676
C         13.30575        40.33001        -0.83244
C         12.26297        39.63772        -0.24222
C         13.33320        41.76845        -0.95106
C         11.82018        42.66319         0.25366
C         13.37768        44.60984         0.05893
C         12.26371        43.93557         0.65536
C         13.45785        45.99980         0.30768
C         15.75468        14.65307         1.06828
C         15.72299        16.06559         0.77169
C         14.47945        16.79782         0.65624
C         15.75467        18.67550        -0.34541
C         14.45124        18.10687         0.19177
C         15.72842        20.16231        -0.62789
C         14.41575        20.68790        -1.16789
C         15.70154        22.97147        -1.39851
C         14.38912        22.20973        -1.40630
C         15.68218        24.43515        -1.07381
C         14.39890        25.18257        -1.11369
C         15.68408        27.36078        -1.21258
C         14.39883        26.64014        -1.54323
C         15.69896        28.76674        -1.21703
C         14.47539        29.50914        -1.32906
C         15.72968        31.63264        -1.56999
C         14.49518        30.90212        -1.54255
C         15.68511        33.10741        -1.99453
C         14.47719        33.86746        -1.48766
C         15.73161        36.02295        -1.44604
C         14.48171        35.28367        -1.45152
C         15.69075        37.46326        -1.35047
C         14.51969        38.16968        -1.42400
C         15.77382        40.37044        -1.30257
C         14.46339        39.66249        -1.57245
C         15.73567        41.86212        -1.38310
C         14.49942        42.56308        -0.93788
C         15.77033        44.68217        -0.62146
C         14.51284        43.94785        -0.58250
C         15.81634        46.07823        -0.31001
C         14.61540        46.76391         0.06344
C         15.83185        48.89834         0.17727
C         14.64313        48.16495         0.28689
C         15.86065        50.30604         0.42905
C         18.22932        10.43623         1.79248
C         18.17779        11.81853         1.59753
C         16.97384        12.53149         1.41133
C         18.23209        14.59473         0.70182
C         16.93782        13.91755         1.12339
C         18.18456        16.09011         0.97986
C         16.91921        16.78094         0.71424
C         18.20457        18.91646         0.17459
C         16.89321        18.28920         0.60082
C         18.17718        20.15139        -0.39892
C         16.91751        20.82013        -0.74370
C         18.21316        23.03885        -0.82017
C         16.99283        22.25228        -1.14512
C         18.18789        24.48724        -0.84244
C         16.95112        25.20810        -1.06426
C         18.07489        27.38353        -0.62838
C         16.88030        26.60705        -1.01382
C         18.12205        28.82575        -0.91507
C         16.94717        29.50746        -1.16063
C         18.20564        31.64952        -1.19258
C         16.95062        30.95691        -1.35748
C         18.25205        33.11701        -1.39257
C         16.99036        33.86994        -1.75274
C         18.20362        35.98780        -1.25937
C         16.97374        35.32359        -1.45858
C         18.22185        37.49416        -1.45405
C         16.94847        38.19109        -0.94194
C         18.24092        40.40850        -1.38190
C         16.94205        39.68591        -1.25503
C         18.28790        41.86440        -1.16664
C         17.04104        42.62237        -1.28009
C         18.25792        44.68955        -0.71364
C         17.00905        44.02454        -0.85770
C         18.27651        46.10358        -0.50651
C         17.04658        46.80242        -0.33272
C         18.28954        48.93902        -0.18385
C         17.06147        48.21404        -0.11673
C         18.29742        50.38123         0.03639
C         17.04050        51.03692         0.38326
C         18.22385        53.16510         0.78756
C         17.05808        52.41868         0.76232
C         18.26177        54.47047         1.35949
C         20.87194         6.43132         2.95939
C         20.77359         7.69757         2.37631
C         19.53543         8.41094         2.32140
C         20.71017        10.42847         1.53353
C         19.47670         9.73819         1.90106
C         20.69817        11.80693         1.37091
C         19.46533        12.57713         1.81636
C         20.73373        14.74163         1.47870
C         19.46203        13.96828         1.28201
C         20.73560        16.06342         0.69752
C         19.46581        16.85878         1.00451
C         20.75034        18.83118         0.10977
C         19.48124        18.37061         0.79317
C         20.74447        20.16027        -0.51325
C         19.43766        20.86178        -0.75211
C         20.66388        23.02465        -0.56706
C         19.43787        22.34528        -0.70751
C         20.62710        24.46816        -0.19110
C         19.38199        25.18938        -0.63433
C         20.63793        27.40568        -0.42556
C         19.36954        26.63663        -0.42776
C         20.64802        28.77244        -0.55098
C         19.45268        29.49346        -1.12867
C         20.57863        31.65624        -0.44863
C         19.39751        30.97765        -0.87088
C         20.50315        33.12986        -0.26616
C         19.39197        33.87596        -0.86977
C         20.69228        35.98989        -0.80858
C         19.42590        35.27408        -1.00249
C         20.77347        37.44105        -1.26514
C         19.48451        38.16686        -0.86144
C         20.75921        40.38319        -0.90955
C         19.53433        39.64113        -1.25996
C         20.73449        41.78453        -0.83371
C         19.48955        42.52828        -0.93716
C         20.73114        44.66766        -0.65408
C         19.49505        43.96663        -0.78051
C         20.74816        46.09717        -0.57107
C         19.51170        46.81386        -0.48532
C         20.75724        48.97290        -0.55871
C         19.49420        48.23622        -0.39062
C         20.73729        50.48374        -0.40690
C         19.46983        51.11786         0.00047
C         20.74010        53.20504         0.70865
C         19.47078        52.61082         0.16464
C         20.69649        54.47243         1.31698
C         19.46808        55.11943         1.60634
C         20.72932        57.27418         2.05153
C         19.50886        56.42847         2.36260
C         20.70992        58.67103         2.34135
C         23.44599         3.84981         3.84172
C         22.22875         4.51532         3.77231
C         23.26851         6.23275         2.38239
C         22.11741         5.72744         3.04777
C         23.15357         7.49623         1.62969
C         21.94595         8.31467         1.79869
C         23.16200        10.31457         1.01880
C         21.93578         9.65303         1.40024
C         23.10673        11.75001         0.67292
C         21.89689        12.53867         1.03502
C         23.23532        14.64443         1.03794
C         21.94877        13.91245         1.07255
C         23.25643        16.17019         1.13019
C         21.99516        16.87971         0.89153
C         23.23690        18.89927         0.09895
C         21.97986        18.20107         0.38328
C         23.21744        20.28150        -0.29663
C         21.98273        20.95131        -0.46467
C         23.15719        23.10534        -0.58058
C         21.92859        22.35935        -0.55327
C         23.12964        24.55350        -0.55226
C         21.91380        25.20998        -0.43635
C         23.19264        27.41026        -0.36046
C         21.88199        26.64984        -0.18854
C         23.12964        28.87531        -0.47277
C         21.86759        29.53738        -0.37820
C         23.02745        31.62966         0.24956
C         21.77860        30.94851        -0.19231
C         23.07543        33.14353         0.16840
C         21.78228        33.91197         0.01202
C         23.08559        36.06643        -0.12861
C         21.81970        35.33843        -0.37855
C         23.17736        37.50927        -0.46717
C         21.98682        38.21176        -0.76413
C         23.17278        40.36208        -0.46035
C         21.96400        39.63217        -0.71971
C         23.15014        41.75991        -0.41327
C         21.95113        42.50764        -0.59978
C         23.21808        44.64733        -0.51897
C         21.95869        43.93199        -0.57923
C         23.23220        46.10058        -0.48180
C         21.99647        46.80927        -0.47487
C         23.22032        48.90104        -0.06564
C         22.02414        48.23074        -0.37025
C         23.26840        50.37367         0.11926
C         22.02043        51.18079        -0.06673
C         23.20419        53.13173         0.90119
C         21.96908        52.51469         0.56651
C         23.16619        54.63035         0.97622
C         21.97705        55.11623         1.80770
C         23.15396        57.36705         1.51510
C         21.90999        56.62552         1.74149
C         23.15161        58.85329         1.92063
C         21.88848        59.42225         2.42178
C         23.16073        61.35452         3.22823
C         21.94001        60.71236         3.01304
C         24.57774         4.36248         3.19108
C         25.70756         6.05399         1.68620
C         24.49961         5.55343         2.45654
C         25.73607         7.56042         1.54034
C         24.45026         8.21080         1.21853
C         25.65619        10.38379         0.94692
C         24.39622         9.66768         1.05869
C         25.67282        11.73263         0.66605
C         24.41594        12.47157         0.48788
C         25.65890        14.61539         0.44180
C         24.47115        13.94198         0.64024
C         25.59907        16.08850         0.10808
C         24.58659        16.90653         0.92859
C         25.68007        18.91870        -0.06367
C         24.46318        18.26245         0.26910
C         25.68127        20.29433        -0.42280
C         24.43233        21.00115        -0.47988
C         25.61274        23.16080        -0.84936
C         24.38725        22.42081        -0.65931
C         25.60873        24.54449        -0.87550
C         24.38003        25.29229        -0.71185
C         25.55056        27.47166        -1.31594
C         24.38776        26.68289        -0.75523
C         25.59762        28.95276        -0.91336
C         24.35188        29.56711        -0.49357
C         25.55748        32.00004        -1.34637
C         24.31290        30.82082         0.26152
C         25.53307        33.22055        -0.51562
C         24.36472        33.83665        -0.11473
C         25.63295        35.97984        -0.36626
C         24.36754        35.30143         0.10836
C         25.66615        37.47913        -0.22263
C         24.41158        38.18289        -0.33880
C         25.63632        40.29470        -0.40330
C         24.42966        39.62574        -0.37186
C         25.64412        41.75713        -0.48326
C         24.40487        42.49023        -0.02315
C         25.69801        44.62795        -0.50806
C         24.40520        43.93971        -0.42185
C         25.73377        46.13024        -0.41656
C         24.44287        46.81289        -0.30711
C         25.68667        48.85692         0.36811
C         24.44819        48.19224         0.00638
C         25.61227        50.15271         1.07102
C         24.28065        50.90295         1.13029
C         25.61615        53.09408         1.39601
C         24.40454        52.41997         1.05624
C         25.65854        54.51021         1.51437
C         24.45741        55.27009         1.41282
C         25.67207        57.36593         1.82170
C         24.44651        56.64590         1.58341
C         25.63269        58.75653         2.15980
C         24.43466        59.45925         2.33237
C         24.38453        60.73999         2.93473
C         26.89087         8.28280         1.53532
C         28.11542        10.39637         1.17645
C         26.92163         9.69232         1.19939
C         28.18819        11.78350         0.81759
C         26.94584        12.42070         0.25056
C         28.12162        14.63009         0.38034
C         26.91981        13.92640         0.38497
C         28.13430        16.07751         0.24414
C         26.93177        16.79097         0.14492
C         28.16072        18.88018        -0.20935
C         26.92962        18.19518        -0.01719
C         28.15082        20.29134        -0.54412
C         26.90949        20.96086        -0.68809
C         28.13730        23.09604        -1.37530
C         26.85484        22.37984        -1.10464
C         28.16684        24.58138        -1.14645
C         26.88390        25.30839        -0.88584
C         28.02859        27.47372        -1.23309
C         26.86387        26.77747        -1.07647
C         27.99695        28.92551        -1.68344
C         26.74473        29.66245        -1.21455
C         28.10063        31.78443        -0.95981
C         26.83603        31.16168        -1.51804
C         28.11142        33.11245        -0.53837
C         26.84722        33.73427         0.04749
C         28.14168        35.98627         0.07530
C         26.86044        35.25702         0.14462
C         28.15250        37.45691        -0.12854
C         26.88499        38.13947        -0.27016
C         28.13851        40.32630        -0.08841
C         26.94210        39.59287        -0.64693
C         28.18341        41.70503        -0.08128
C         26.94946        42.46238        -0.37362
C         28.13901        44.63106         0.35427
C         26.89345        43.89603         0.00959
C         28.16128        46.09466         0.12811
C         26.99049        46.81182        -0.01930
C         28.17156        48.94074         0.54806
C         26.93760        48.23093         0.26299
C         28.18210        50.24559         1.00696
C         26.90266        50.86642         1.40732
C         28.18664        53.09648         1.72392
C         26.84687        52.33851         1.70268
C         28.13056        54.54287         1.57652
C         26.91196        55.22916         1.65623
C         26.87835        56.65076         1.78532
C         29.35260        12.51980         0.86668
C         30.57207        14.65636         0.59754
C         29.38127        13.93442         0.57493
C         30.62200        16.06782         0.37423
C         29.37062        16.78252         0.15896
C         30.68426        18.83048        -0.47085
C         29.37500        18.16287        -0.11339
C         30.63104        20.33689        -0.35515
C         29.39358        20.98066        -0.65326
C         30.65910        23.19760        -0.81654
C         29.43261        22.38529        -1.10368
C         30.60860        24.72525        -0.80716
C         29.41069        25.29385        -1.65642
C         30.33125        27.59275        -1.88747
C         29.28410        26.80598        -1.49121
C         30.53059        28.98132        -1.51864
C         29.31222        29.67740        -1.38762
C         30.59851        31.70198        -0.86364
C         29.33133        31.06261        -1.08493
C         30.60027        33.11062        -0.58777
C         29.36189        33.77729        -0.41621
C         30.66008        35.98771        -0.18939
C         29.36971        35.24240        -0.30331
C         30.59089        37.37882         0.35709
C         29.33220        38.12561         0.09464
C         30.62429        40.29831         0.16416
C         29.32004        39.58467         0.45751
C         30.61742        41.69429         0.10173
C         29.39343        42.41990         0.16660
C         30.64229        44.58643        -0.09705
C         29.44511        43.87272         0.57708
C         30.70244        46.02883         0.27142
C         29.46070        46.77952         0.07215
C         30.73460        48.90933         0.66440
C         29.46132        48.28237         0.23830
C         30.67692        50.27238         1.02337
C         29.43881        50.97911         1.15607
C         29.41895        52.34130         1.44829
C         31.81379        16.79152         0.46870
C         32.98885        18.95837         0.48236
C         31.86781        18.19784         0.22149
C         33.01380        20.39072         0.29099
C         31.79298        21.06362        -0.09177
C         33.06783        23.25890        -0.07117
C         31.72973        22.56810         0.06804
C         33.14994        24.61260        -0.48320
C         32.00552        25.26651        -1.10451
C         33.27337        27.40537        -1.32989
C         32.20920        26.49560        -1.68043
C         33.11026        28.77699        -1.20176
C         31.83624        29.55544        -1.25126
C         33.04238        31.68086        -0.58680
C         31.83018        30.95855        -0.92438
C         33.05570        33.04331        -0.31204
C         31.84618        33.82014        -0.35914
C         33.11906        35.94219         0.06839
C         31.89749        35.21022        -0.09171
C         33.15388        37.40037         0.25823
C         31.88358        38.09879         0.62515
C         33.18759        40.33240         0.48634
C         31.85552        39.60404         0.59348
C         33.09123        41.63837        -0.20211
C         31.87864        42.44925         0.05160
C         33.14476        44.48268         0.79852
C         31.90018        43.80619         0.19331
C         33.14317        45.97076         0.52036
C         31.93691        46.70548         0.47532
C         31.91281        48.14402         0.65797
C         34.17447        21.12585         0.51908
C         35.48650        23.22011         0.26117
C         34.25047        22.54294         0.25750
C         35.57606        24.58437        -0.11212
C         34.39889        25.27095        -0.52479
C         35.69331        27.41816        -0.59796
C         34.56511        26.63411        -1.18376
C         35.64758        28.78940        -0.58160
C         34.42588        29.56100        -1.09576
C         35.57140        31.60571        -0.06217
C         34.28796        30.88862        -0.37833
C         35.57837        33.07003        -0.04399
C         34.27829        33.74058         0.28317
C         35.54822        35.90924        -0.17537
C         34.32429        35.22679         0.02655
C         35.48611        37.37740        -0.53010
C         34.32876        38.09536         0.11732
C         35.70189        40.26716        -0.01579
C         34.52229        39.52747         0.60154
C         35.79225        41.63773         0.10349
C         34.77601        42.45166         0.81605
C         34.32107        43.67799         0.28325
C         36.82837        25.27687        -0.09517
C         38.11671        27.37680        -0.18059
C         36.90346        26.67422        -0.27694
C         38.13881        28.80045        -0.22783
C         36.86764        29.51548        -0.30596
C         38.06370        31.66790        -0.18029
C         36.86036        30.90690        -0.20633
C         38.02300        33.05724        -0.30144
C         36.75803        33.76574        -0.22098
C         37.99578        35.92781        -0.51065
C         36.75767        35.21706        -0.29068
C         38.00189        37.32670        -0.56974
C         36.81180        38.09602        -0.44635
C         36.84007        39.48055        -0.40996
C         39.33628        29.50191        -0.15780
C         40.53672        31.71464        -0.53371
C         39.37842        30.98024         0.08949
C         40.46879        33.04308        -0.75396
C         39.24110        33.79991        -0.53513
C         39.21193        35.17723        -0.64653
O         13.56547        22.46657        -2.59577
O         34.88459        39.50397         1.96408
O         23.64791        35.82615         1.23055
O         16.33499        42.41289        -2.58099
O         27.79572        24.89795         0.22105
O         27.47017        52.65861         2.96841
O         20.73288        49.87775        -1.73888
O         30.50709        22.59810        -2.11495
O         23.61011        12.04480        -0.68689
O         26.33735        42.24897        -1.69598
O         10.41289        37.20445        -1.26696
O         12.11106        42.38107        -1.11326
O         31.32639        26.97401        -2.64874
O          8.97845        34.71369        -1.20281
O         23.36624        15.36268         2.35283
O         31.11271        37.51399         1.72854
O         34.72861        30.94179         1.00988
O         22.67301        27.04152         0.98204
O         24.63248        31.79328        -2.14503
O         18.52900        27.04135         0.74340
O         23.07927        51.13333        -1.10313
O         18.81528        16.49125         2.25459
O         12.14996        31.11119        -2.51070
O         27.37143        22.59900        -2.49812
O         23.09839        58.43137         0.52283
O         12.22436        25.05323        -2.33142
O         29.98875        35.87700        -1.49250
O          9.19707        28.91850         1.29847
O         23.65264         7.44798         0.24381
O         29.52662        47.70877        -1.11033
O         20.83843        33.62031         1.07858
O         16.53940        22.59267        -2.52303
O         20.12025        20.23722        -1.88755
O         23.02669        32.45397         1.45629
O         17.95738        33.52302        -2.80615
O         27.49730        35.70336         1.36725
O         27.16769        44.21288         1.40653
O         14.94609        24.78475         0.17990
O         12.50080        34.43911         0.38263
O         26.19908        50.06531         2.42344
O         25.90800        45.41916        -1.71139
O         19.01949        39.98474        -2.57127
O         26.86217        33.26228         1.42012
O         19.36794        53.14976        -1.31464
O         32.45990        40.30276         1.73638
O         34.10631        33.58605         1.73615
H         34.19095        32.61920         1.92169
O         34.49077        42.09323         2.07806
H         34.73681        41.10197         2.24168
O         23.67983        50.59817         2.41650
H         24.41802        50.56252         3.07017
O         25.62408        35.73882        -1.81615
H         26.30138        36.31623        -2.23110
O         19.50652        18.98185         2.13251
H         19.85992        18.31427         2.76148
O         29.19064        39.59599         1.92386
H         29.89425        39.00073         2.28296
O         25.66393         5.49474         0.35874
H         24.89599         5.91425        -0.09664
O         20.85827        15.06443         2.88676
H         20.52791        14.28839         3.39989
O         32.98965        44.34628         2.22337
H         33.22850        43.42501         2.48312
O         29.55283        24.95938        -3.03546
H         30.29107        25.49544        -3.40422
O         20.60703        52.88110        -1.96904
H         20.46885        52.00240        -2.40538
O         18.28601        14.47650        -0.75906
H         18.36814        13.52638        -0.98576
O         12.44236        26.41193         1.05182
H         12.53377        27.29027         1.47748
O         22.89447        55.11156        -0.37182
H         23.45239        54.61341        -1.00431
O         30.42109        44.49906        -1.54036
H         30.26242        45.40297        -1.89057
O         29.73283        43.91181         1.98909
H         28.91210        43.64758         2.46204
O         27.01116        12.17910        -1.20867
H         26.09593        12.23762        -1.56032
O         22.15627        54.73711         3.19461
H         21.34004        55.01700         3.67489
O         14.21199        39.93271        -2.98110
H         13.50232        39.30680        -3.27004
O         27.01597        31.24686        -2.98250
H         26.10260        31.26230        -3.35972
O         16.90958        38.10787         0.52339
H         15.97111        38.12125         0.81454
O         34.74672        29.92550        -2.47484
H         34.78713        29.09620        -2.99904
O         11.67169        31.83837         1.07611
H         11.97555        32.76989         1.19468
O         12.79082        33.50383        -3.08800
H         13.55420        33.24545        -3.65732
O         20.72089        15.69881        -0.70637
H         20.70584        16.51606        -1.24861
O         27.90220        28.80012        -3.14492
H         27.76120        29.72354        -3.48331
O         39.59157        31.09432         1.55355
H         38.80693        30.70010         1.99172
O         20.48141        24.45755         1.29041
H         20.40144        25.39077         1.58955
O         30.36599        25.18382         0.53767
H         30.71341        24.51375         1.17515
O         25.23301        31.09703         1.04713
H         26.34119        32.42336         1.48738
O         19.58344        56.08078         3.77054
H         19.64384        56.91433         4.28245
O         31.28168        22.80350         1.45784
H         31.99333        22.48750         2.05510
O         19.60490        12.67403         3.30040
H         19.60478        11.75499         3.64621
O         14.30606        26.63277        -3.00306
H         13.45364        26.18863        -3.23376
O         27.13222        39.60275        -2.11819
H         26.97248        40.53703        -2.40426
O         20.87082        37.43106        -2.71727
H         21.72521        37.02572        -2.97489
O         25.11726        16.13883        -1.26883
H         25.76745        15.67593        -1.83815
O         10.96601        37.56307         2.38001
H         10.51600        37.96572         3.15349
O         14.29530        20.04181        -2.47265
H         13.83297        20.68820        -3.06065
O         19.51512        38.09902         0.57573
H         18.59933        38.15778         0.93652
O         16.60050        18.81756         1.92267
H         17.44601        18.80419         2.43075
O         15.49980        33.05700        -3.45383
H         16.40663        33.06401        -3.84464
O         25.15670        17.15895         2.22998
H         24.76589        16.49574         2.84717
O         34.97730        26.34222        -2.57368
H         35.76527        25.75886        -2.52277
O         24.48826        42.45113         1.44256
H         23.65868        42.82650         1.80564
O         13.25704        37.81475         0.96595
H         12.67060        37.73102         1.76060
O         25.36045        27.49085        -2.76977
H         26.19098        27.86966        -3.15864
O         30.89091        18.55936        -1.90127
H         30.25738        19.11437        -2.40465
O         35.15951        37.39586        -1.97609
H         35.87265        36.90745        -2.44078
O         19.68644        29.37730        -2.58986
H         19.02215        29.94169        -3.04210
O         16.02699        18.03168        -1.61370
H         15.44011        18.45983        -2.28170
O         12.48749        37.90904        -2.64048
H         11.53542        37.64455        -2.54874
O         18.17901        37.65100        -2.88472
H         19.09049        37.53368        -3.24222
O         33.50656        41.61248        -1.49118
H         33.19588        42.40415        -1.97791
O         10.05628        29.00225        -1.92198
H         10.62052        29.55752        -2.50557
H          5.17435        31.21608         1.35633
H          5.30694        33.64815         1.65107
H          7.37184        26.89686        -0.68729
H          5.99366        29.23454         0.49430
H          6.62399        35.72160         1.65450
H          8.11467        37.74117         1.94188
H          9.88442        22.50545         0.02447
H          8.60734        24.68000         0.09145
H          9.43002        39.96335         1.76875
H         10.70979        41.88719         1.91630
H         12.35557        18.47400         0.61870
H         11.16792        20.48517         0.22832
H         11.76234        44.44011         1.49454
H         12.57743        46.50317         0.73432
H         14.80287        14.14984         1.29890
H         13.54340        16.29956         0.95342
H         13.71176        48.68052         0.56469
H         14.92064        50.81425         0.69149
H         17.29605         9.85376         1.82515
H         16.02154        11.98157         1.48254
H         16.12371        52.86729         1.13369
H         17.31835        54.92630         1.69680
H         19.97762         5.97675         3.41070
H         18.61525         7.90222         2.64474
H         18.56570        57.01601         2.18498
H         19.76106        59.13029         2.66069
H         23.52544         2.91225         4.40941
H         21.34480         4.11171         4.28628
H         23.16437        62.34922         3.69584
H         21.00416        61.19440         3.33093
H         25.53501         3.82532         3.25188
H         26.64870         5.69061         2.16999
H         26.58006        59.25589         2.41504
H         25.32476        61.24200         3.20488
H         27.84843         7.78261         1.74880
H         29.04596         9.87963         1.45890
H         29.06848        55.10445         1.45402
H         27.82820        57.18835         1.92382
H         30.29151        12.03539         1.17770
H         31.51671        14.12392         0.78784
H         31.60827        50.80565         1.26520
H         30.37035        52.89341         1.47506
H         32.73508        16.27301         0.77744
H         33.88880        18.47732         0.89660
H         34.09469        46.51419         0.61473
H         32.86092        48.64248         0.91084
H         35.09566        20.59877         0.80909
H         36.40143        22.67690         0.53992
H         36.66360        42.16221        -0.31824
H         34.65455        43.90884        -0.74185
H         37.74175        24.72032         0.16147
H         39.05779        26.82704        -0.03223
H         38.96617        37.85326        -0.64051
H         37.80498        39.99869        -0.53568
H         40.27865        28.94122        -0.05790
H         41.47298        31.16419        -0.70937
H         41.34480        33.58997        -1.13534
H         40.14485        35.72538        -0.84772
