         429
 CSIRO Nanostructure Databank - Neutral Graphene Oxide Data Set
C          1.38338         2.14947        -1.72743
C          1.35279         3.54281        -1.65034
C          2.58856         1.45444        -1.67228
C          2.54695         4.29704        -1.50580
C          1.36448         6.51979        -1.71133
C          1.35444         7.87259        -1.57198
C          2.54454         5.73011        -1.45020
C          2.52680         8.57089        -0.93413
C          1.36732        10.80611        -0.92790
C          1.36663        12.19031        -0.83802
C          2.56777        10.08356        -1.06680
C          2.57378        12.92284        -0.81069
C          1.39565        15.11424        -0.52985
C          1.41859        16.48727        -0.32555
C          2.59005        14.36672        -0.64381
C          2.63860        17.18550        -0.24223
C          2.66317        18.60303         0.01139
C          3.81245         2.15692        -1.51224
C          3.78835         3.58803        -1.40639
C          5.04820         1.46936        -1.48845
C          5.01684         4.30016        -1.25282
C          3.79048         6.43685        -1.31538
C          3.80125         7.84834        -1.27372
C          5.01555         5.70335        -1.26404
C          5.06181         8.58431        -1.41341
C          3.77884        10.79590        -1.08735
C          3.79942        12.20839        -0.92402
C          5.06147        10.09195        -1.32612
C          5.06197        12.90771        -0.82008
C          3.83837        15.04948        -0.57368
C          3.86504        16.47152        -0.38956
C          5.06865        14.31862        -0.64151
C          5.10228        17.17743        -0.34218
C          3.83998        19.28146         0.09942
C          5.10672        18.61264        -0.10940
C          6.27698         2.14424        -1.29683
C          6.27102         3.57636        -1.12072
C          7.50198         1.44470        -1.24439
C          7.45860         4.24401        -0.79225
C          6.35449         6.39313        -1.34323
C          6.32519         7.88670        -1.15294
C          7.37057         5.71842        -0.42862
C          7.49988         8.57015        -0.93598
C          6.32952        10.76191        -0.97297
C          6.29333        12.18174        -0.80752
C          7.52305        10.02697        -0.85161
C          7.52477        12.87840        -0.60944
C          6.31497        15.02401        -0.52722
C          6.33275        16.47226        -0.43168
C          7.51946        14.30704        -0.52983
C          7.56074        17.18235        -0.33405
C          6.28443        19.32267        -0.08440
C          7.58049        18.68272        -0.46915
C          8.71648         2.11534        -0.97960
C          8.68689         3.53467        -0.71199
C          9.95159         1.42327        -0.92268
C          9.90096         4.20625        -0.40210
C          8.68834         6.45401        -0.48652
C          8.73018         7.80195        -0.68566
C          9.88121         5.67099         0.00378
C         10.04414         8.54665        -0.79620
C          8.75427        10.71727        -0.53186
C          8.71906        12.12915        -0.42380
C          9.98900         9.99700        -0.37724
C          9.92117        12.83880         0.04214
C          8.79256        15.05036        -0.50200
C          8.79033        16.49980        -0.24425
C         10.06545        14.29545        -0.23733
C          9.99381        17.16274         0.10788
C          8.80192        19.31366         0.13371
C          9.96630        18.59742         0.32224
C         11.15191         2.09035        -0.61007
C         11.11420         3.51005        -0.36053
C         12.39491         1.40477        -0.52661
C         12.34538         4.18991         0.02992
C         11.19003         6.32749        -0.42189
C         11.18926         7.79952        -0.15631
C         12.34115         5.57107         0.17682
C         12.52771         8.46671        -0.23797
C         11.20042        10.62175        -0.01592
C         11.17310        12.06662         0.30022
C         12.43615         9.92791         0.13273
C         12.44653        12.84248         0.35841
C         11.23753        15.01895         0.29748
C         11.20554        16.43785         0.39008
C         12.38835        14.30086         0.66588
C         12.39014        17.12569         0.79894
C         11.19350        19.25357         0.70999
C         12.36465        18.56581         0.89842
C         13.59022         2.05782        -0.15149
C         13.56062         3.44478         0.19785
C         14.84545         1.37938        -0.17356
C         14.77720         4.14539         0.52827
C         13.46179         6.27197         0.87176
C         13.61677         7.72806         0.50377
C         14.74942         5.50312         0.79153
C         14.73224         8.40295         0.93335
C         13.60410        10.57050         0.62394
C         13.66981        12.05342         0.65345
C         14.74860         9.83771         0.97453
C         14.71994        12.72692         1.47269
C         13.54713        14.98421         1.09865
C         13.56476        16.39511         1.13891
C         14.68972        14.20595         1.65640
C         14.81867        17.08247         1.42903
C         13.61808        19.34112         1.23404
C         14.86691        18.50167         1.37545
C         16.05148         2.03306         0.12194
C         16.05405         3.42709         0.51232
C         17.29408         1.35611         0.04650
C         17.24593         4.04544         0.87294
C         16.03986         6.26818         0.87752
C         15.89680         7.64603         1.54492
C         17.16539         5.43625         1.50477
C         17.21326         8.39522         1.41766
C         15.95785        10.49819         1.52278
C         15.99035        11.97401         1.71860
C         17.24785         9.78158         1.41087
C         17.26570        12.70835         1.57619
C         15.99222        14.89440         2.08136
C         16.01768        16.35725         1.66736
C         17.25824        14.11769         1.66538
C         17.24303        17.03094         1.74607
C         16.08214        19.16436         1.49996
C         17.30038        18.45221         1.63070
C         18.52365         1.93637         0.40687
C         18.50954         3.33817         0.86882
C         19.68396         1.14006         0.11858
C         19.66411         4.10313         1.12904
C         18.44392         6.23428         1.40305
C         18.43751         7.65856         1.40920
C         19.64380         5.55418         1.19917
C         19.67456         8.37610         1.43974
C         18.47231        10.52343         1.32401
C         18.46750        11.97616         1.35362
C         19.69609         9.80810         1.21425
C         19.69214        12.68989         1.20968
C         18.48482        14.80646         1.61963
C         18.49520        16.26075         1.90875
C         19.70523        14.11691         1.35444
C         19.80179        17.01276         1.74837
C         18.54563        19.14629         1.57709
C         19.77153        18.47640         1.52469
C         20.97542         1.38476         0.61905
C         20.97477         3.50893         1.25710
C         22.24701         1.02081         0.17922
C         22.13348         4.10387         0.85505
C         20.89574         6.24447         1.21106
C         20.86689         7.59277         1.61591
C         22.01988         5.54668         0.43104
C         22.17471         8.49287        -0.17495
C         20.88313        10.53913         0.80461
C         20.89531        11.96673         0.88565
C         22.09629         9.88366         0.39096
C         22.08881        12.69990         0.59349
C         20.93720        14.84146         1.17576
C         20.99199        16.26612         1.30021
C         22.10341        14.12543         0.73518
C         22.16000        16.99410         1.04348
C         20.98204        19.14328         1.24598
C         22.19077        18.43803         1.02862
C         23.40364         1.82715         0.55002
C         23.34917         3.34791         0.35634
C         24.62369         1.22866         0.72685
C         24.60923         4.10364         0.73467
C         23.35117         6.26871         0.41446
C         23.37829         7.66447         0.19558
C         24.57021         5.55535         0.61756
C         24.58587         8.37042         0.34107
C         23.29482        10.58840         0.30159
C         23.31264        12.01986         0.29117
C         24.58791         9.85898         0.54968
C         24.48545        12.72649        -0.11083
C         23.29636        14.82090         0.44068
C         23.39158        16.25511         0.75317
C         24.42043        14.15033        -0.12596
C         24.60850        17.04323         0.31097
C         23.36746        19.15187         0.65716
C         24.54607        18.52138         0.21628
C         25.83976         1.96112         1.01220
C         25.81005         3.42930         0.97695
C         27.00210         1.28938         1.26707
C         27.04540         4.13157         1.10749
C         25.79160         6.28226         0.63744
C         25.80590         7.68470         0.52070
C         27.11538         5.56697         0.66786
C         27.06156         8.44648         0.62668
C         25.80133        10.50444        -0.06147
C         25.75107        11.96752        -0.40103
C         27.07103         9.85596         0.34979
C         27.07650        12.64865        -0.33771
C         25.38597        14.97355        -0.80777
C         25.53561        16.35299        -0.60215
C         27.24337        13.92528        -0.94380
C         26.57530        17.12815        -1.16184
C         25.68814        19.19927        -0.25472
C         26.81507        18.49249        -0.79070
C         28.26558         1.98048         1.68740
C         28.26153         3.45973         1.35292
C         29.51759         1.28791         1.20462
C         29.47965         4.15303         1.43146
C         28.20411         6.37003         1.36630
C         28.21684         7.81470         1.07638
C         29.51692         5.62238         1.59920
C         29.44361         8.58686         1.29487
C         28.22725        10.63359         0.53355
C         28.18833        12.04455         0.25843
C         29.47496        10.00412         0.89054
C         29.37199        12.86825         0.59492
C         28.35042        14.74180        -0.75811
C         28.41760        16.07667        -1.22761
C         29.33862        14.36655         0.31896
C         29.43794        16.95492        -0.84175
C         28.09497        19.08579        -0.97513
C         29.34371        18.39257        -0.99516
C         30.72706         1.95584         1.17822
C         30.73502         3.40779         1.49861
C         31.96321         1.31601         0.89018
C         32.03593         4.19447         1.25981
C         30.78686         6.34563         1.36483
C         30.79103         7.82322         1.36797
C         31.94950         5.66227         1.07129
C         31.98694         8.53957         0.88688
C         30.69121        10.68425         0.84886
C         30.69326        12.16366         0.81468
C         31.94840         9.98695         0.77720
C         31.95231        12.89478         0.55644
C         30.68723        14.99106         0.03606
C         30.66856        16.33733        -0.39145
C         31.91857        14.32035         0.26616
C         31.87188        17.07975        -0.49528
C         30.56419        19.11637        -0.97472
C         31.81943        18.48015        -0.80302
C         33.17200         2.03149         0.67961
C         33.19076         3.46528         0.73310
C         34.36678         1.34740         0.33600
C         34.32624         4.18700         0.29194
C         33.15571         6.36222         0.67638
C         33.14537         7.81395         0.60019
C         34.29104         5.64000         0.30637
C         34.38071         8.52681         0.33060
C         33.10842        10.71946         0.47237
C         33.12494        12.15192         0.42343
C         34.28381         9.97575        -0.09932
C         34.42706        12.85727         0.31577
C         33.12296        15.03702         0.04837
C         33.11411        16.41270        -0.30967
C         34.41997        14.36440         0.19208
C         34.33884        17.13991        -0.47493
C         33.05149        19.18955        -0.84021
C         34.27858        18.54214        -0.68252
C         35.53561         2.04547        -0.02554
C         35.48544         3.46998        -0.11035
C         36.77725         1.34453        -0.24709
C         36.66649         4.17566        -0.63187
C         35.50028         6.39398        -0.07140
C         35.56239         7.83799         0.23703
C         36.72480         5.66526        -0.50214
C         36.85655         8.54241         0.10088
C         35.57719        10.73870        -0.10882
C         35.63718        12.10054        -0.08971
C         36.85899         9.99934        -0.15607
C         36.88095        12.79991        -0.42977
C         35.63109        15.05848        -0.27172
C         35.60129        16.42682        -0.48492
C         36.94741        14.30839        -0.20182
C         36.82512        17.17314        -0.78808
C         35.54223        19.37478        -0.64455
C         36.80385        18.58998        -0.92078
C         37.97460         1.98576        -0.54140
C         37.95938         3.43732        -0.83741
C         39.22940         1.31851        -0.64927
C         39.24747         4.18563        -0.80269
C         38.06594         6.29007        -0.27027
C         38.12463         7.77066        -0.09886
C         39.29734         5.55018        -0.60771
C         39.36440         8.49817        -0.47938
C         37.97045        10.57669        -1.02121
C         37.97689        12.09868        -0.87288
C         39.32113         9.89005        -0.75305
C         39.18097        12.75652        -1.41984
C         37.95733        14.99883        -1.09601
C         38.01972        16.47509        -1.03605
C         39.17667        14.24869        -1.54677
C         39.19776        17.13895        -1.45715
C         37.96439        19.26153        -1.27719
C         39.17618        18.56536        -1.54685
C         40.40811         2.01482        -0.91000
C         40.45795         3.42524        -0.95891
C         41.68392         4.16309        -1.15543
C         40.61281         6.25259        -0.30332
C         40.57389         7.76533        -0.56713
C         41.75641         5.50164        -0.94083
C         41.75919         8.48250        -0.78426
C         40.53116        10.57825        -0.99313
C         40.50727        12.01715        -1.40634
C         41.74005         9.86538        -0.96598
C         41.70084        12.87601        -1.33549
C         40.44396        14.97941        -1.67101
C         40.41466        16.41447        -1.74787
C         41.65250        14.23936        -1.51651
C         41.56270        17.15804        -2.09746
C         40.35924        19.25821        -1.91305
C         41.52821        18.55515        -2.17854
O         37.60918        10.26564        -2.34314
O         15.83475        11.08730         2.88889
O         37.16017         9.52687         1.19230
O         27.42137        16.55491        -2.11698
O         38.07102        14.58930        -2.48404
O         19.30727        16.61544         3.07464
O         30.15078         8.37377         2.55925
O         16.01672        14.92208         3.52904
O         29.88165        12.66766         1.95732
O         35.90339         6.28950        -1.53533
O         38.24488         6.87445         1.08649
O         26.18637        14.35257        -1.77959
O         21.00675         2.21291         1.76298
O         24.53223        16.53206         1.67566
O         37.09032         3.75191        -1.98026
O         31.61602         3.76668         2.60761
O         28.61906         6.03055         2.70599
O         34.66567        13.70044         1.50887
O          5.09692         9.43294        -2.65036
O         21.38322         8.15639        -1.05423
O         39.72093        12.17027        -2.64020
O         13.43397        12.59205        -0.70287
O         25.65917        10.92101        -1.44766
O         10.29804        12.45682         1.41513
O          9.71115        14.65365        -1.60637
O         33.93655         9.85426        -1.53772
H         34.74916         9.58834        -2.02399
O         40.81969         6.10678         1.14255
H         39.99928         6.46016         1.56998
O          6.89853         5.80423         0.93967
H          7.68053         5.66990         1.52322
O         37.43661        14.48282         1.16441
H         36.70880        14.17853         1.75733
O         14.18580        13.30028         2.71394
H         15.50722        14.13449         3.83593
O         12.93924         8.42134        -1.67858
H         12.20198         8.86540        -2.17211
O         16.85198         5.20917         2.90193
H         17.58313         4.68752         3.29272
O          9.79075         5.70309         1.46073
H         10.69198         5.55400         1.82745
O          6.83357         6.17563        -2.70724
H          6.30537         6.74521        -3.30623
O          7.71939        18.93155        -1.93898
H          8.52392        18.45017        -2.23131
O         21.53279         5.50646        -0.95526
H         21.39381         6.44654        -1.25703
O          2.36853         8.37203         0.53285
H          2.27663         7.40626         0.68418
O         35.44252        20.49943        -1.52508
H         35.41301        20.16669        -2.44533
O         23.29433         3.45727        -1.11329
H         22.67352         4.19382        -1.35105
O         10.31116         8.60577        -2.25914
H         10.34418         7.66103        -2.55484
O         16.41171         6.55948        -0.49652
H         16.53651         5.70867        -0.96805
O         28.83434        15.00156         1.53464
H         29.24229        14.51427         2.28808
O         21.94438         8.13785         2.27041
H         21.70470         9.03219         2.59131
O         15.59014         7.46668         2.95193
H         15.58033         8.35315         3.37290
O         24.78657        10.02648         1.99949
H         24.20266         9.39024         2.46486
O         11.31559         6.14200        -1.88466
H         12.14373         6.62429        -2.13397
O         28.31182         1.88690         3.15661
H         29.07895         2.41888         3.46115
O         27.58277         5.53857        -0.73482
H         26.90319         5.06797        -1.26406
O         13.09660         6.27263         2.31767
H         13.90676         6.57856         2.80545
O         13.41648        20.09261         2.44752
H         13.33630        19.45738         3.18856
H          0.44101         1.59553        -1.84188
H          0.38323         4.05614        -1.70215
H          2.60262         0.35829        -1.75207
H          0.46254         6.01601        -2.08817
H          0.44627         8.43994        -1.82030
H          0.40990        10.26972        -0.87732
H          0.40268        12.70764        -0.74570
H          0.42197        14.61032        -0.58844
H          0.47404        17.04037        -0.22143
H          1.70539        19.12765         0.14200
H          5.05184         0.37487        -1.60507
H          3.84856        20.36342         0.29594
H          7.50781         0.35517        -1.39700
H          6.26682        20.40863         0.09361
H          9.96749         0.33891        -1.10795
H          8.81016        20.40668         0.26271
H         12.42771         0.33266        -0.77244
H         11.18383        20.34708         0.82963
H         14.86924         0.31771        -0.46198
H         13.78956        20.10460         0.42791
H         17.29206         0.31168        -0.30129
H         16.10461        20.26321         1.46112
H         19.54509         0.30755        -0.58894
H         18.52890        20.24030         1.45932
H         22.39272         0.15221        -0.48232
H         20.97518        20.23845         1.13838
H         24.68722         0.12917         0.73609
H         23.31491        20.25096         0.63181
H         27.00046         0.18831         1.26706
H         25.72991        20.29661        -0.18635
H         29.49133         0.20061         1.03508
H         28.15338        20.17993        -0.85617
H         31.96861         0.22469         0.75235
H         30.53912        20.20869        -1.10782
H         34.37608         0.24762         0.35004
H         33.04681        20.27583        -1.01512
H         36.78052         0.25366        -0.09853
H         35.62610        19.80271         0.39553
H         39.26077         0.22530        -0.53240
H         37.94287        20.35714        -1.37277
H         41.34743         1.45231        -1.01539
H         42.57180         3.61139        -1.50060
H         42.71525         6.01547        -1.09934
H         42.72623         7.96301        -0.81451
H         42.69066        10.38801        -1.14257
H         42.67215        12.41519        -1.10420
H         42.60055        14.79506        -1.46927
H         42.49695        16.63535        -2.34437
H         40.34217        20.35504        -1.98441
H         42.43889        19.09919        -2.46551
