         424
 CSIRO Nanostructure Databank - Neutral Graphene Oxide Data Set
C          1.58836         3.45706         0.85730
C          0.39434         4.11745         1.06589
C          1.41568         6.26754         0.48829
C          0.30586         5.51039         0.88369
C          1.34126         7.71068         0.29073
C          0.15291         8.41241         0.53827
C          1.18850        10.56753         0.08480
C          0.10860         9.82884         0.49350
C          1.16383        12.04982         0.18073
C         -0.07352        12.80017        -0.08338
C          1.16680        14.92738        -0.21717
C         -0.05645        14.14858        -0.22575
C          1.14097        16.35386        -0.22275
C         -0.08457        17.08617        -0.26978
C          1.10494        19.20083         0.00756
C         -0.09640        18.45419        -0.20328
C          1.08159        20.60695         0.16494
C         -0.06423        21.38999        -0.11375
C          1.12984        23.47217         0.40466
C         -0.06040        22.76260         0.01458
C          1.11478        24.93675         0.52764
C         -0.09680        25.65979         0.50189
C          1.11243        27.77750         0.64552
C         -0.09505        27.04210         0.55730
C          1.10414        29.21822         0.59308
C         -0.06025        29.95279         0.37595
C          1.16548        32.07713         0.18861
C         -0.04584        31.34768         0.24490
C          1.16550        33.49397        -0.12311
C          0.01366        34.26644        -0.15710
C          1.25032        36.32597        -0.66454
C          0.03832        35.64363        -0.47312
C          1.29477        37.74749        -0.88534
C          3.96815         3.51880         0.25205
C          2.74630         4.17978         0.45066
C          3.81136         6.33821        -0.13993
C          2.66479         5.60533         0.26215
C          3.73588         7.76228        -0.32458
C          2.51070         8.42505        -0.11930
C          3.68710        10.65669        -0.43517
C          2.38828         9.87608        -0.51257
C          3.67609        12.02100        -0.33368
C          2.45996        12.79551         0.00968
C          3.61910        14.97948        -0.38010
C          2.41569        14.25496        -0.24966
C          3.61718        16.40377        -0.26491
C          2.36722        17.09150        -0.13562
C          3.59704        19.22376         0.19227
C          2.35580        18.49985         0.04573
C          3.59478        20.59890         0.48653
C          2.27434        21.26670         0.79832
C          3.51205        23.45503         1.17041
C          2.28921        22.76042         0.64281
C          3.62364        24.88940         0.64576
C          2.32205        25.65012         0.69690
C          3.62230        27.77813         0.78301
C          2.34180        27.05752         0.74393
C          3.63385        29.19569         0.68705
C          2.36411        29.97512         0.92136
C          3.64754        32.06569         0.35429
C          2.39346        31.38630         0.38332
C          3.68969        33.47234         0.01779
C          2.46272        34.09712        -0.59866
C          3.69903        36.28427        -0.62973
C          2.48136        35.60481        -0.57601
C          3.73702        37.70641        -0.87648
C          2.48574        38.40627        -1.00842
C          6.34852         3.55544        -0.27809
C          5.11908         4.21729        -0.17347
C          6.16961         6.36207        -0.83956
C          5.04199         5.65286        -0.41156
C          6.15574         7.78964        -0.87560
C          4.93790         8.49536        -0.65957
C          6.13947        10.62972        -0.86900
C          4.92930         9.92791        -0.69852
C          6.15732        12.07752        -0.75726
C          4.84504        12.80919        -0.85052
C          6.06419        14.95269        -0.44239
C          4.88295        14.26954        -0.46788
C          6.10072        16.44268        -0.68169
C          4.83694        17.13994        -0.24953
C          6.09249        19.23695         0.13880
C          4.84560        18.52062         0.00760
C          6.08400        20.61615         0.47858
C          4.81714        21.33079         0.63362
C          6.02305        23.46749         1.05422
C          4.80443        22.71612         0.88799
C          6.05325        24.84717         1.17851
C          4.76803        25.62563         1.34906
C          6.08730        27.75887         0.88664
C          4.83516        27.07537         0.91098
C          6.09839        29.17642         0.67838
C          4.85421        29.89515         0.61895
C          6.11246        32.04419         0.73314
C          4.84639        31.33472         0.55845
C          6.11222        33.57423         0.51441
C          4.86943        34.19567         0.03526
C          6.15786        36.24928        -0.49505
C          4.93357        35.57656        -0.39841
C          6.19755        37.65054        -0.85827
C          4.96220        38.35355        -1.00604
C          8.69253         3.54277        -0.92406
C          7.50560         4.21069        -0.78042
C          8.67380         6.38741        -1.19126
C          7.38087         5.61433        -1.34678
C          8.64544         7.81682        -1.12300
C          7.39257         8.51115        -1.03843
C          8.61881        10.64960        -1.12405
C          7.38770         9.93008        -1.00663
C          8.60939        12.15972        -1.23786
C          7.33078        12.77191        -0.72832
C          8.61892        14.96077        -0.28196
C          7.33720        14.20523        -0.36755
C          8.59457        16.44232        -0.30044
C          7.38083        17.13962        -0.29079
C          8.56184        19.26346         0.11770
C          7.34812        18.55594        -0.02837
C          8.55847        20.61681         0.54962
C          7.30736        21.27606         0.75182
C          8.57775        23.42511         1.33694
C          7.26925        22.67576         1.21096
C          8.58636        24.88631         1.20334
C          7.31182        25.61483         1.53774
C          8.54648        27.71520         0.85041
C          7.31823        27.05021         1.04499
C          8.56703        29.13688         0.63686
C          7.34544        29.86350         0.60516
C          8.58280        31.97311         0.39564
C          7.38182        31.29989         0.55918
C          8.61911        33.45925         0.41777
C          7.38242        34.23435         0.21095
C          8.64751        36.23617        -0.50859
C          7.40229        35.54594        -0.26215
C          8.66804        37.61428        -0.90307
C          7.42419        38.30012        -1.04342
C         11.14423         3.53118        -1.16865
C          9.87525         4.21865        -1.54994
C         11.11920         6.39908        -1.12098
C          9.88046         5.70332        -1.25527
C         11.11979         7.82860        -1.08644
C          9.86753         8.54284        -1.15369
C         11.11317        10.71991        -1.38471
C          9.83647         9.97274        -1.20487
C         11.12424        12.24566        -1.30147
C          9.87482        12.76047        -0.58591
C         11.08209        14.95821        -0.44490
C          9.89439        14.27119        -0.54386
C         11.07155        16.40443        -0.25179
C          9.84541        17.11076        -0.23580
C         11.09894        19.23982         0.13933
C          9.83681        18.60707        -0.36340
C         11.09659        20.74024         0.18280
C          9.80087        21.33724         0.70729
C         11.03374        23.43129         1.08627
C          9.81564        22.68760         1.03636
C         11.03561        24.82352         0.99052
C          9.77591        25.55452         0.98063
C         11.02328        27.66937         0.68649
C          9.80047        26.99808         0.85777
C         11.04030        29.09809         0.51173
C          9.81375        29.82239         0.49834
C         11.04829        31.90038         0.02219
C          9.82823        31.24583         0.29798
C         11.02187        33.30445        -0.52918
C          9.89739        34.13503         0.04207
C         11.09841        36.18889        -0.59238
C          9.86828        35.54855        -0.38711
C         11.13708        37.56589        -0.98215
C          9.90967        38.24915        -1.13912
C         13.50343         3.49635        -0.59046
C         12.33843         4.21317        -0.95057
C         13.54543         6.38412        -0.81290
C         12.35296         5.68229        -1.01100
C         13.56952         7.82265        -0.77296
C         12.34688         8.52025        -0.94707
C         13.62331        10.70864        -0.78316
C         12.39786         9.97628        -1.15399
C         13.60288        12.12469        -0.63025
C         12.38498        12.85878        -0.71027
C         13.57470        14.96036        -0.24360
C         12.36294        14.24624        -0.47065
C         13.55555        16.39154        -0.07011
C         12.30843        17.09260        -0.07453
C         13.53975        19.19610         0.42956
C         12.28902        18.52031         0.16643
C         13.49386        20.57666         0.86179
C         12.32674        21.29446         0.84979
C         13.53377        23.44685         1.22362
C         12.27017        22.67281         1.46414
C         13.52377        24.80979         0.96181
C         12.27576        25.53999         0.89020
C         13.51160        27.62805         0.48276
C         12.27856        26.94033         0.69069
C         13.51098        29.05725         0.26929
C         12.27544        29.78115         0.32050
C         13.51932        31.85819        -0.17096
C         12.27980        31.18848         0.04898
C         13.56545        33.27420        -0.67820
C         12.31943        34.06325        -0.42335
C         13.59410        36.21296        -0.23242
C         12.32870        35.42611        -0.45499
C         13.61926        37.52811        -0.98402
C         12.40766        38.18019        -1.24144
C         15.97928         3.51197         0.06357
C         14.80332         4.12709        -0.54183
C         15.94202         6.41325        -0.02591
C         14.82241         5.66160        -0.70826
C         16.09641         7.77593        -0.70365
C         14.79427         8.54454        -0.65005
C         16.05483        10.66841        -0.34428
C         14.81854         9.96475        -0.59787
C         16.04690        12.09049        -0.24767
C         14.82416        12.82287        -0.35094
C         16.04636        14.95156        -0.06000
C         14.81596        14.24630        -0.21152
C         16.04407        16.39669         0.05085
C         14.77864        17.10502         0.08484
C         16.02008        19.25268         0.47329
C         14.76514        18.51978         0.31086
C         16.03109        20.52288         0.97726
C         14.76353        21.20000         1.30705
C         16.05986        23.42341         1.15499
C         14.78920        22.71988         1.40241
C         16.01154        24.83081         0.88740
C         14.77427        25.52077         0.80153
C         15.98737        27.59392         0.27172
C         14.75284        26.91955         0.52594
C         15.95570        28.97211        -0.32645
C         14.71234        29.74235         0.00971
C         16.00263        31.87142        -0.19289
C         14.73013        31.15107        -0.14883
C         16.03265        33.25888        -0.15267
C         14.82634        34.01520        -0.31792
C         16.11115        36.09283        -0.46924
C         14.84742        35.39183        -0.37502
C         16.10179        37.48652        -0.91203
C         14.87214        38.12741        -1.21704
C         18.40336         3.52493         0.53470
C         17.18353         4.21348         0.20280
C         18.43041         6.34512         0.20549
C         17.23402         5.63847         0.04708
C         18.45850         7.79979         0.13696
C         17.29155         8.52742        -0.16628
C         18.49920        10.65129         0.10013
C         17.27508         9.94597        -0.14504
C         18.50452        12.08175         0.08099
C         17.27498        12.79778        -0.05621
C         18.52395        14.91763         0.01203
C         17.27395        14.22510        -0.02313
C         18.50901        16.38009        -0.14020
C         17.24861        17.09878         0.06590
C         18.56405        19.24807         0.50199
C         17.28833        18.60750        -0.03434
C         18.56218        20.59154         0.91041
C         17.29709        21.23777         1.41207
C         18.50185        23.45753         1.08705
C         17.26498        22.73325         1.15621
C         18.46815        24.87100         0.93596
C         17.24619        25.53441         0.73303
C         18.44575        27.60983         0.02685
C         17.21362        26.93098         0.35570
C         18.46971        28.99391        -0.14126
C         17.23764        29.74240        -0.13163
C         18.50580        31.85738        -0.20239
C         17.24319        31.12689        -0.15519
C         18.55281        33.22811        -0.04826
C         17.28415        33.99612         0.27120
C         18.55754        36.16776        -0.21554
C         17.29269        35.42089        -0.23953
C         18.56608        37.52936        -0.78873
C         17.32729        38.14396        -1.10194
C         19.58417         4.20631         0.65797
C         20.83353         6.34528         0.70683
C         19.63778         5.62875         0.50497
C         20.85723         7.73367         0.64745
C         19.69157         8.48756         0.37879
C         20.91369        10.66541         0.45801
C         19.70811         9.93132         0.31532
C         20.92905        12.04301         0.39313
C         19.73546        12.78772         0.21619
C         20.96139        14.97098         0.33794
C         19.73832        14.22739         0.14504
C         21.00607        16.32671         0.33912
C         19.83575        17.13841        -0.01048
C         21.00100        19.26362         0.61802
C         19.79985        18.57261         0.36957
C         20.99760        20.62285         0.88104
C         19.77788        21.32404         1.02555
C         20.96140        23.54015         1.16585
C         19.74803        22.76536         1.14530
C         20.97335        24.89493         1.07956
C         19.72144        25.71778         1.02077
C         20.94317        27.57623        -0.26261
C         19.68935        26.75886        -0.13161
C         20.93712        28.91734        -0.41278
C         19.71708        29.70446        -0.35175
C         20.89536        31.84879        -0.85130
C         19.72350        31.09281        -0.44235
C         20.95611        33.18668        -0.69481
C         19.91316        33.89758         0.13157
C         21.07598        36.14112        -0.52796
C         19.88571        35.42376        -0.06048
C         21.01569        37.46507        -0.88597
C         19.78894        38.16668        -1.00529
O          6.08305        32.98915         1.85732
O         14.77118        21.84956         2.63705
O         15.17269         4.85091        -1.82049
O          9.57212        33.95821         1.44871
O         11.89160        10.28844        -2.54977
O         19.26586        16.86465        -1.33736
O         19.24209        36.06852         1.10472
O          1.93035        12.50205         1.36402
O          7.87453        22.92165         2.54354
O          7.99093        14.40268         0.97747
O         20.30965        33.68004         1.52083
H         19.82923        34.34788         2.05962
O          2.08913        21.04374         2.27705
H          1.16021        21.28744         2.48333
O          7.27425        25.68700         3.02008
H          7.45191        24.76449         3.33059
O         19.65873        26.49777         2.24847
H         19.65462        25.87391         3.00400
O          7.18004         5.45124        -2.78796
H          7.95681         4.93434        -3.12115
O         16.37847         7.52025        -2.11058
H         16.44179         8.38378        -2.56918
O          4.50651        25.69970         2.77177
H          5.36966        25.89940         3.21017
O         17.21716        34.10833         1.73902
H         17.81649        34.85070         1.98747
O          2.31753        30.15165         2.40130
H          1.50096        30.65753         2.60263
O          2.53896        33.73378        -2.04009
H          1.75528        34.13385        -2.47463
O          9.70458         4.10068        -3.02554
H         10.50411         4.49091        -3.44045
O         17.36025        21.06981         2.86952
H         16.49182        21.38914         3.22086
O         15.50109         6.62729         1.34242
H         16.21255         7.10585         1.81810
O          2.12065         9.85710        -1.98202
H          1.39550         9.21260        -2.13210
O         13.56637        36.59404         1.18882
H         12.74101        37.10216         1.33994
O         11.17365        21.18964        -1.22570
H         10.60572        20.56203        -1.74406
O          6.09551        16.54193        -2.16612
H          5.28801        16.08382        -2.48624
O          9.83550        18.87449        -1.85045
H         10.47831        18.24993        -2.25280
O         12.14547        22.46968         2.91894
H         13.02636        22.14283         3.22928
O         13.61413        33.14162        -2.15100
H         12.68564        32.98806        -2.45005
O          4.58759        12.87466        -2.31500
H          4.34484        11.96965        -2.61069
O          9.91643        12.30111         0.78508
H          9.24726        12.83368         1.28068
O         10.75773        33.15053        -1.97636
H         10.10568        32.42637        -2.09105
O         19.55061        25.98094        -1.35678
H         19.63251        26.59520        -2.11561
O          3.97826        24.76782        -0.75912
H          3.96957        25.66520        -1.15357
O         17.32461        18.88551        -1.47699
H         18.05158        18.32496        -1.84532
O          8.61651        12.51018        -2.64920
H          7.80895        12.13405        -3.05750
O          3.35271        23.46635         2.61100
H          3.10425        22.54658         2.87486
O         15.86850        28.74751        -1.79265
H         16.63636        28.18941        -2.04115
O         11.11737        12.75989        -2.65240
H         11.57810        12.09037        -3.20912
H          1.65989         2.36947         1.00053
H         -0.49914         3.55865         1.37752
H         -0.66431         5.99364         1.05934
H         -0.74997         7.88116         0.86427
H         -0.80149        10.33507         0.84724
H         -1.01873        12.24768        -0.18691
H         -1.01124        14.66541        -0.39278
H         -1.04014        16.55564        -0.37129
H         -1.06035        18.97851        -0.24601
H         -0.97365        20.90329        -0.49281
H         -0.97017        23.31934        -0.24366
H         -1.05910        25.13566         0.43305
H         -1.05877        27.56684         0.52617
H         -1.02568        29.44240         0.25570
H         -1.00093        31.86147         0.07410
H         -0.95798        33.81925         0.09753
H         -0.90702        36.20394        -0.50079
H          0.34474        38.29644        -0.96301
H          4.03319         2.43496         0.42888
H          2.50515        39.49029        -1.19357
H          6.42256         2.49998         0.02495
H          4.98798        39.43055        -1.23042
H          8.77768         2.48775        -0.62180
H          7.43088        39.36525        -1.31999
H         11.14370         2.43109        -1.13871
H          9.91864        39.30545        -1.44752
H         13.41181         2.43786        -0.30565
H         12.42355        39.19793        -1.66176
H         15.93475         2.44832         0.34215
H         14.90496        39.14378        -1.64078
H         18.37400         2.43355         0.66587
H         17.33204        39.17326        -1.49172
H         20.51245         3.66781         0.89911
H         21.75715         5.79463         0.93690
H         21.81192         8.24507         0.82841
H         21.86520        10.13842         0.60630
H         21.89421        12.55669         0.48760
H         21.88060        14.42505         0.58737
H         21.93398        16.82709         0.64777
H         21.96515        18.74699         0.52352
H         21.95948        21.14188         0.97819
H         21.92487        23.01771         1.24919
H         21.93322        25.42929         1.13679
H         21.89807        27.03194        -0.31795
H         21.89337        29.44532        -0.54130
H         21.71458        31.32309        -1.36414
H         21.84028        33.73361        -1.05096
H         22.03782        35.61385        -0.58631
H         21.94257        37.98364        -1.17100
H         19.79804        39.20178        -1.37566
