         404
 CSIRO Nanostructure Databank - Neutral Graphene Oxide Data Set
C          1.12095         2.31291         0.02468
C          1.14580         3.61521         0.45244
C          2.31281         1.56269        -0.12426
C          2.42442         4.22024         0.97115
C          1.32702         6.44279         1.37448
C          1.34065         7.83033         1.50273
C          2.46030         5.73372         0.96122
C          2.49801         8.57357         1.20349
C          1.40979        10.75846         1.80759
C          1.47501        12.12476         2.07134
C          2.53413        10.03422         1.36990
C          2.66995        12.85481         1.90894
C          1.71525        15.02670         2.76568
C          1.81593        16.42849         2.97790
C          2.77265        14.25669         2.29889
C          2.97942        17.14377         2.72789
C          3.06265        18.58115         2.77131
C          3.57413         2.19833        -0.01172
C          3.63955         3.57259         0.35794
C          4.77607         1.51437        -0.36904
C          4.85828         4.26935         0.26445
C          3.65264         6.44380         0.67146
C          3.64434         7.86369         0.76140
C          4.88680         5.71467         0.38659
C          4.84741         8.62474         0.38769
C          3.74133        10.76000         1.14386
C          3.81314        12.15999         1.40586
C          4.92577        10.06342         0.72662
C          5.03219        12.87744         1.09803
C          4.09691        14.89089         2.20777
C          4.21096        16.40881         2.42158
C          5.12214        14.24741         1.38005
C          5.35511        17.14288         1.84764
C          4.22066        19.24726         2.47825
C          5.40042        18.56267         1.98738
C          5.99678         2.16246        -0.34893
C          6.05671         3.55531        -0.04285
C          7.25446         1.43892        -0.78528
C          7.32070         4.24540        -0.07871
C          6.09898         6.38029         0.21470
C          6.12905         7.85103         0.13164
C          7.33792         5.67451         0.03065
C          7.42785         8.52338         0.32296
C          6.13970        10.72932         0.60417
C          6.21044        12.15828         0.68664
C          7.40648         9.96427         0.63050
C          7.43302        12.84129         0.43456
C          6.19504        15.04921         0.82023
C          6.39131        16.46368         1.19381
C          7.41782        14.28840         0.24197
C          7.57959        17.14468         0.81069
C          6.56894        19.24060         1.62479
C          7.69168        18.54488         1.10031
C          8.49352         2.02474        -0.08244
C          8.52881         3.53078        -0.22146
C          9.77262         1.35499        -0.49467
C          9.75517         4.22171        -0.38428
C          8.56560         6.37507        -0.05898
C          8.59868         7.80545         0.19377
C          9.77640         5.65855        -0.32327
C          9.92053         8.47663         0.23608
C          8.70958        10.73087         0.61396
C          8.67874        12.17237         0.31404
C          9.97433         9.98728         0.35400
C          9.85427        12.84648        -0.08035
C          8.68005        15.01289         0.07830
C          8.69886        16.45250         0.21924
C          9.83554        14.27481        -0.19172
C          9.87987        17.16403        -0.06051
C          8.93160        19.20448         0.88697
C         10.03414        18.52927         0.34655
C         10.94839         2.04762        -0.67943
C         10.96796         3.49682        -0.61042
C         12.19229         1.36266        -0.96004
C         12.18973         4.18489        -0.79681
C         11.00456         6.34512        -0.53606
C         11.06863         7.78152        -0.39597
C         12.20457         5.61861        -0.78452
C         12.21087         8.48294        -0.70254
C         11.10492        10.73241        -0.22754
C         11.08540        12.11003        -0.36521
C         12.33064         9.93814        -0.44254
C         12.28894        12.83596        -0.79369
C         10.99875        14.97452        -0.76075
C         10.98102        16.48930        -0.77233
C         12.27324        14.24334        -0.93677
C         12.24813        17.26644        -1.10340
C         11.32645        19.16128         0.25405
C         12.43280        18.53886        -0.30557
C         13.37990         2.03610        -1.09675
C         13.41350         3.47447        -0.99817
C         14.64204         1.30043        -1.48703
C         14.64514         4.17828        -1.06623
C         13.42423         6.30099        -1.03035
C         13.37778         7.75620        -1.23350
C         14.64939         5.60926        -1.12580
C         14.68226         8.48326        -1.48437
C         13.56323        10.67922        -0.86501
C         13.49611        12.13683        -1.07206
C         14.74079         9.94478        -1.35393
C         14.65180        12.81217        -1.51143
C         13.46006        14.95861        -1.23276
C         13.50259        16.40941        -1.14077
C         14.65548        14.22648        -1.51333
C         14.69749        17.08730        -1.27301
C         13.71480        19.14423        -0.34121
C         14.83525        18.49208        -0.89942
C         15.91405         2.01956        -1.08114
C         15.89484         3.46851        -0.97630
C         17.08414         1.31537        -1.00439
C         17.08688         4.19415        -0.82121
C         15.90580         6.32967        -1.19211
C         15.94004         7.73921        -1.34943
C         17.12180         5.61851        -0.97698
C         17.15183         8.46986        -1.24997
C         15.92567        10.60885        -1.56563
C         15.88105        12.05335        -1.89629
C         17.17822         9.90830        -1.49435
C         17.17313        12.76332        -2.26202
C         15.86284        14.92112        -1.88044
C         15.84915        16.39148        -1.86857
C         17.02348        14.26679        -2.27997
C         17.18853        17.14151        -1.93395
C         16.10498        19.13180        -0.93034
C         17.29033        18.49910        -1.36146
C         18.32531         1.94381        -0.53718
C         18.31505         3.48957        -0.43738
C         19.63848         1.31916        -0.72956
C         19.60107         4.19129        -0.45835
C         18.34063         6.34791        -0.80120
C         18.33283         7.75481        -0.90629
C         19.58450         5.63909        -0.50980
C         19.50511         8.54304        -0.48048
C         18.37855        10.66019        -1.48383
C         18.47049        12.02341        -1.92383
C         19.54855        10.01308        -0.81969
C         19.77146        12.63030        -1.95651
C         18.13717        15.07881        -2.65543
C         18.38886        16.35640        -2.19444
C         20.02508        13.92552        -2.51100
C         19.75607        16.86656        -1.74128
C         18.56223        19.09358        -1.37107
C         19.76449        18.38875        -1.69255
C         20.79804         2.01965        -0.54817
C         20.79348         3.46025        -0.35325
C         22.12395         1.30893        -0.73786
C         22.03510         4.14095        -0.08296
C         20.75597         6.32852        -0.24283
C         20.78048         7.80322        -0.12772
C         21.95254         5.58483         0.17436
C         22.09538         8.49171        -0.25535
C         20.89157        10.68094        -0.83707
C         20.97796        12.00337        -1.48964
C         22.13868         9.89785        -0.63608
C         22.20137        12.66897        -1.56213
C         21.09182        14.74665        -2.20301
C         21.01366        16.24979        -2.45866
C         22.29404        14.08513        -1.79606
C         22.27510        16.93966        -1.96266
C         20.97700        19.05228        -1.75394
C         22.24172        18.35646        -1.79631
C         23.33050         2.04444        -0.19039
C         23.25760         3.47027         0.04665
C         24.51325         1.37119        -0.03793
C         24.48828         4.18572         0.33311
C         23.25686         6.35852         0.34406
C         23.25860         7.77329        -0.07635
C         24.51903         5.59774         0.32366
C         24.57874         8.37737        -0.31050
C         23.33872        10.54167        -0.79914
C         23.44470        11.90657        -1.35131
C         24.61528         9.82246        -0.67967
C         24.77872        12.60157        -1.44809
C         23.50422        14.79458        -1.71889
C         23.47938        16.23484        -1.74770
C         24.83783        14.08393        -1.82792
C         24.69472        16.95172        -1.47116
C         23.43189        19.05793        -1.55537
C         24.67168        18.38107        -1.41235
C         25.73621         2.02533         0.37436
C         25.71058         3.47029         0.53737
C         26.91869         1.31199         0.45370
C         26.90557         4.18372         0.77909
C         25.75506         6.30008         0.39004
C         25.79363         7.72207         0.23102
C         26.96075         5.59842         0.65151
C         26.97859         8.43005         0.39765
C         25.78909        10.63161        -0.23698
C         25.93657        12.00622        -0.73845
C         26.97932         9.91231         0.33354
C         27.08966        12.72015        -0.47492
C         25.99038        14.82781        -1.20016
C         25.93264        16.26592        -1.23142
C         27.14122        14.15095        -0.77222
C         27.11167        17.00527        -1.01953
C         25.86619        19.09674        -1.14719
C         27.09208        18.43045        -0.96926
C         28.14943         1.91036         0.97055
C         28.12811         3.48063         1.15953
C         29.46092         1.32994         0.73248
C         29.40998         4.19040         1.13607
C         28.19637         6.32201         0.81275
C         28.20322         7.74726         0.69567
C         29.41402         5.62916         1.05321
C         29.40995         8.48904         0.86236
C         28.25660        10.64490         0.38953
C         28.25806        12.06441         0.10445
C         29.40133         9.92790         0.74603
C         29.43581        12.80873         0.24614
C         28.37520        14.86217        -0.58628
C         28.40124        16.29754        -0.95799
C         29.51658        14.19902        -0.11090
C         29.68297        17.09711        -0.80474
C         28.29001        19.15195        -0.65160
C         29.55322        18.57261        -0.51771
C         30.63221         2.03774         0.98306
C         30.59369         3.46220         1.24149
C         31.90849         1.40094         0.73661
C         31.84494         4.19500         1.49117
C         30.63789         6.36233         1.19134
C         30.63386         7.79420         1.12642
C         31.86318         5.66216         1.38653
C         31.86813         8.49483         1.33302
C         30.62545        10.67003         1.07764
C         30.62564        12.15859         0.82263
C         31.91036         9.94772         1.25717
C         31.94633        12.80953         0.58473
C         30.76897        14.92506         0.07363
C         30.84203        16.31110        -0.29019
C         31.95618        14.27946         0.46198
C         32.09222        16.89203        -0.30979
C         30.60611        19.39706        -0.00229
C         31.97336        19.06495        -0.10565
C         33.11263         2.06867         0.79146
C         33.17129         3.45995         1.28789
C         34.34844         1.46457         0.38430
C         34.37408         4.26541         1.04012
C         33.09167         6.35299         1.47794
C         33.06167         7.77679         1.52693
C         34.36703         5.65731         1.31545
C         34.30523         8.48904         1.87604
C         33.07840        10.65820         1.41676
C         33.18440        12.06850         0.96520
C         34.31216         9.98519         1.87679
C         34.42751        12.84625         1.21184
C         33.19949        14.96600         0.67325
C         33.24169        16.38289         0.36776
C         34.36834        14.28561         1.08689
C         34.34071        17.22094         0.62482
C         33.11326        19.47893         0.57687
C         34.33195        18.68169         0.57845
C         35.52110         2.18935         0.28738
C         35.54139         3.62726         0.55753
C         36.76374         1.53469        -0.03790
C         36.72111         4.37084         0.38301
C         35.59206         6.37317         1.23197
C         35.63451         7.77596         1.69526
C         36.77434         5.73536         0.77036
C         36.86435         8.58535         1.50153
C         35.62934        10.72424         1.80599
C         35.60034        12.17308         1.48532
C         36.89529         9.96704         1.58282
C         36.88688        12.88384         1.64953
C         35.54441        15.08501         1.47446
C         35.54044        16.59173         1.21302
C         36.87458        14.38583         1.61429
C         36.82829        17.29141         1.08072
C         35.54885        19.34919         0.73307
C         36.81112        18.66457         0.78699
C         37.93160         2.23268        -0.19973
C         37.91075         3.74086        -0.28334
C         39.18794         1.56739        -0.44413
C         39.22458         4.38571         0.07881
C         38.04589         6.42767         0.81204
C         38.10021         7.79190         1.33724
C         39.25296         5.76092         0.47307
C         39.42719         8.58478         1.13591
C         38.12207        10.72782         1.31626
C         38.12499        12.15497         1.29827
C         39.33392        10.04707         1.02362
C         39.29061        12.90143         0.98741
C         38.10891        15.08650         1.21493
C         38.08608        16.56088         1.22481
C         39.28096        14.36534         0.94483
C         39.36618        17.30650         0.70327
C         38.00427        19.35499         0.40236
C         39.19832        18.67460         0.18916
C         40.36070         2.26265        -0.46878
C         40.40658         3.68077        -0.16956
C         41.66012         4.35740        -0.08399
C         40.51810         6.45640         0.43049
C         40.55937         7.87520         0.54056
C         41.70382         5.70885         0.15809
C         41.65656         8.65268         0.09923
C         40.49153        10.76015         0.61753
C         40.48580        12.19884         0.63696
C         41.64038        10.03018         0.18007
C         41.65826        12.93326         0.32442
C         40.47020        15.05782         0.49160
C         40.45903        16.47195         0.19818
C         41.64303        14.31142         0.24456
C         41.41655        17.08220        -0.61490
C         40.26880        19.23588        -0.56945
C         41.34626        18.45649        -0.94368
O         10.56204        15.73466        -1.96083
O         39.04241         8.01804         2.42785
O          4.61038        15.44976         3.46608
O         19.87376         8.29643         0.91520
O         36.99468        13.66486         2.89519
O         27.98849         2.55752         2.26964
O         16.32667        12.18413        -3.30607
O         25.96088        10.52433         1.22438
O          8.11378        10.34247         1.88373
O         29.25584        16.65067        -2.12475
O         10.32929         9.12185         1.48626
O         32.24361        18.05429        -1.05548
O         24.82536         8.81537        -1.71935
O         19.09862        14.42347        -3.42020
O         35.00495         7.92634         3.01743
O         35.29274        16.02821         2.56418
O         32.61060         3.65810         2.62298
O         20.01303        10.78390         0.34269
O         16.27823        17.06889        -3.09321
O         30.42356        11.65302         2.17619
O         13.79209         8.11419        -2.61486
O          6.35767        14.79993        -0.61999
O          5.32426         8.37431        -0.99219
O         32.74968        12.15491        -0.46872
O         18.16421         2.63054         0.74233
O         34.92915        10.51512         3.09173
O         22.42596         6.03183         1.50091
O         13.36466        10.28113         0.56639
O         24.29498        11.81942        -2.59577
O         39.07300        17.15749         2.11716
O         25.14816        14.13785        -3.25838
H         24.75161        13.32652        -3.65736
O         22.06060        -0.02420        -0.22378
H         21.90680         0.02780         0.74184
O         20.91335        16.50931        -3.87147
H         20.20944        15.92132        -4.22891
O         19.86805        16.41950        -0.35533
H         19.26008        16.95957         0.19215
O          8.29564         1.72419         1.33727
H          9.05254         2.10243         1.83222
O          2.46069         3.85449         2.40849
H          2.48070         2.87444         2.45474
O          7.38713         1.54861        -2.20812
H          7.35647         2.49746        -2.44895
O         12.08680        17.73992        -2.47418
H         11.63339        17.01672        -2.96666
O         37.74534         4.04045        -1.72691
H         38.50188         3.62260        -2.19191
O         14.64094         1.13183        -2.92257
H         14.56793         2.01884        -3.33152
H          0.16171         1.84081        -0.23405
H          0.20249         4.16826         0.56456
H          2.26298         0.51211        -0.44247
H          0.41002         5.89859         1.63883
H          0.42789         8.33294         1.84811
H          0.45283        10.24656         1.97509
H          0.57253        12.62987         2.44186
H          0.72657        14.56683         2.90546
H          0.90715        16.97481         3.27063
H          2.16977        19.14452         3.08088
H          4.72011         0.45528        -0.66124
H          4.25700        20.34334         2.56056
H          7.17666         0.35072        -0.54415
H          6.63144        20.33028         1.76229
H          9.77751         0.25533        -0.54296
H          9.03071        20.26260         1.17067
H         12.17062         0.26675        -1.05730
H         11.43941        20.16532         0.69175
H         14.63567         0.27065        -1.05077
H         13.84248        20.14560         0.09849
H         17.09798         0.24422        -1.25775
H         16.16888        20.16660        -0.55974
H         19.68641         0.25708        -1.01447
H         18.64879        20.16058        -1.11097
H         22.28556         1.20382        -1.85057
H         20.99603        20.14792        -1.64410
H         24.54016         0.28798        -0.22966
H         23.40262        20.15181        -1.44131
H         26.93999         0.25925         0.13335
H         25.83174        20.19462        -1.08710
H         29.52113         0.31820         0.30372
H         28.19659        20.23710        -0.49144
H         31.89605         0.35112         0.40573
H         30.31869        20.33682         0.49401
H         34.35232         0.39233         0.13596
H         33.11646        20.41647         1.15238
H         36.76973         0.43539        -0.10507
H         35.55854        20.44857         0.70033
H         39.18659         0.47457        -0.57227
H         37.91768        20.40162         0.07438
H         41.31161         1.73939        -0.64551
H         42.58740         3.79164        -0.25292
H         42.67687         6.21785         0.18237
H         42.54368         8.15728        -0.31849
H         42.53051        10.57307        -0.16111
H         42.60241        12.41177         0.12480
H         42.57291        14.83301        -0.01818
H         42.24857        16.49486        -1.02661
H         40.19945        20.28359        -0.89499
H         42.14544        18.89288        -1.55859
