         232
 CSIRO Nanostructure Databank - Neutral Graphene Oxide Data Set
C        -11.24555         0.69757         0.10533
C        -10.00711         1.49440         0.29259
C         -8.73451         0.76744         0.64146
C         -7.44018         1.40393         0.28034
C         -6.22487         0.70767         0.63095
C         -5.00881         1.36478         0.63574
C         -3.76171         0.71023         1.02449
C         -2.56480         1.39366         1.01605
C         -1.30332         0.71218         1.37770
C         -0.03285         1.39529         0.98379
C          1.25857         0.64603         0.98229
C          2.53060         1.40237         1.02184
C          3.72351         0.67776         1.01959
C          5.03665         1.41658         1.16382
C          6.18187         0.69051         0.49165
C          7.25088         1.46480        -0.05638
C          8.56895         0.82370        -0.26711
C          9.86931         1.57429        -0.25041
C         11.01921         0.86555        -0.87044
C         -9.88277         2.80653        -0.35186
C         -8.66703         3.40658        -0.52196
C         -7.43051         2.69244        -0.26621
C         -6.14052         3.33746        -0.60769
C         -4.91058         2.69004        -0.00912
C         -3.75690         3.54931         0.37500
C         -2.51900         2.86443         0.88185
C         -1.22324         3.56780         0.73845
C         -0.02008         2.87719         0.89377
C          1.24528         3.54109         0.81410
C          2.48490         2.83899         0.97282
C          3.70525         3.58166         0.95909
C          4.94671         2.89341         0.81817
C          6.04730         3.57991         0.29275
C          7.08063         2.80765        -0.30081
C          9.01040         3.93652        -0.26938
C          9.97944         3.04606         0.06388
C         -8.64722         4.79688        -1.12449
C         -7.35876         5.57127        -0.93029
C         -6.06291         4.79944        -1.10047
C         -4.85049         5.56208        -0.57108
C         -3.70559         4.95501        -0.08598
C         -2.45282         5.66015         0.04346
C         -1.23351         4.95002         0.34992
C          0.02308         5.59113         0.18849
C          1.25338         4.92865         0.48124
C          2.49650         5.63334         0.39918
C          3.68198         4.99801         0.75972
C          4.93907         5.76750         0.89628
C          6.22232         5.03442         0.54018
C          7.46029         5.83798         0.24174
C          8.73394         5.33150         0.07486
C         -7.36520         6.91788        -0.97466
C         -6.09897         7.69123        -1.26799
C         -4.91027         7.03493        -0.59125
C         -3.61677         7.83584        -0.48467
C         -2.38732         7.01732        -0.41690
C         -1.15200         7.51263        -0.82133
C          0.06876         6.88955        -0.43314
C          1.27664         7.56569        -0.58843
C          2.53122         7.03768        -0.06549
C          3.66472         7.95065         0.35827
C          4.88298         7.29532         1.03113
C          6.12523         7.96382         0.45831
C          7.29243         7.28419         0.23560
C         -6.14697         9.15990        -0.94290
C         -5.02247         9.87790        -0.73889
C         -3.67199         9.31310        -0.74981
C         -2.61403        10.19708        -0.75458
C         -1.22182         9.82884        -0.91987
C         -0.08908        10.49217        -0.51345
C          1.23563         9.87247        -0.55364
C          2.31136        10.26339         0.17630
C          3.54068         9.47548         0.63560
C          4.86380        10.08836         0.20038
C          6.02472         9.39182         0.18621
C        -11.21863        -0.65014         0.04201
C         -9.97549        -1.41378         0.14685
C         -8.82233        -0.75126         0.88945
C         -7.50222        -1.45241         0.67215
C         -6.28798        -0.70715         1.19878
C         -4.97054        -1.40921         0.94813
C         -3.77038        -0.75105         1.09762
C         -2.52380        -1.50214         1.14779
C         -1.28805        -0.78413         1.51571
C          0.02092        -1.54349         1.53135
C          1.31548        -0.80021         1.38219
C          2.58200        -1.52114         1.07930
C          3.75159        -0.75481         0.97752
C          5.09876        -1.44582         1.12101
C          6.22656        -0.69365         0.42220
C          7.35484        -1.36386        -0.18569
C          8.43937        -0.56232        -0.91988
C          9.78055        -1.27742        -0.94927
C         10.97312        -0.46324        -1.13855
C         -9.90611        -2.68404        -0.32009
C         -8.59809        -3.40959        -0.49532
C         -7.46933        -2.73366         0.24494
C         -6.19369        -3.49484         0.19691
C         -4.94324        -2.82331         0.60638
C         -3.70838        -3.60952         0.77318
C         -2.47183        -2.87332         0.94562
C         -1.20865        -3.61112         1.01576
C         -0.00534        -2.99589         1.24265
C          1.32079        -3.74714         1.40702
C          2.56260        -2.94948         0.97591
C          3.74524        -3.63401         0.65890
C          5.05035        -2.92984         0.77185
C          6.26131        -3.56411         0.14991
C          7.40460        -2.73906        -0.30182
C          8.58418        -3.42610        -0.81899
C          9.80279        -2.64190        -0.97806
C         -8.62931        -4.92263        -0.32299
C         -7.52364        -5.66062        -0.00691
C         -6.29424        -4.96697         0.45318
C         -5.02033        -5.71960         0.71013
C         -3.74857        -4.97204         0.60681
C         -2.50624        -5.63230         0.08308
C         -1.28316        -5.08326         0.81135
C          0.02152        -5.82096         0.64613
C          1.27356        -5.09863         0.74653
C          2.42558        -5.71030         0.03151
C          3.74555        -5.01311         0.26357
C          4.89018        -5.67130        -0.17325
C          6.08225        -4.87778        -0.52416
C          7.30021        -5.53764        -1.12470
C          8.56651        -4.78046        -1.07257
C         -7.42772        -7.10250        -0.16752
C         -6.26730        -7.81649         0.01082
C         -5.01722        -7.24486         0.66821
C         -3.73051        -7.84626         0.12958
C         -2.56308        -7.14204         0.04938
C         -1.31052        -7.82741        -0.33392
C          0.01872        -7.13014        -0.07863
C          1.24076        -7.92231        -0.06318
C          2.52772        -7.23892         0.31347
C          3.71465        -7.81422        -0.43122
C          4.86215        -7.06656        -0.57909
C          6.09938        -7.70862        -1.04403
C          7.25903        -7.00753        -1.22926
C         -6.20937        -9.23478        -0.27082
C         -5.03177        -9.92582        -0.29241
C         -3.74368        -9.27568        -0.16140
C         -2.56484        -9.96537        -0.39302
C         -1.28990        -9.30165        -0.42088
C         -0.08145        -9.95794        -0.55567
C          1.20003        -9.27597        -0.48952
C          2.40578        -9.95319        -0.74573
C          3.60140        -9.13761        -1.14945
C          4.92152        -9.86227        -1.16380
C          6.07503        -9.16711        -1.16519
O         -6.42130        -0.60305         2.64467
H         -7.38350        -0.69904         2.86270
O         -5.88253         7.58692        -2.70597
H         -5.91098         6.62615        -2.93932
O         -5.07119        -7.70920         2.04647
H         -5.62735        -7.06047         2.53772
O         -5.87799         4.74238        -2.55290
H         -5.32893         3.94000        -2.73094
O         -9.77389         5.54782        -0.67470
H         -9.74014         5.60231         0.30222
O          1.33699         8.70883        -1.35763
O          3.32455        -8.77136        -2.55894
H          2.60511        -8.10191        -2.54970
O         -1.06611         8.62838        -1.64253
O          2.15793        -5.64287        -1.41185
H          2.28524        -4.71729        -1.70989
O         -0.79552        -5.88140         1.91163
O          6.03415        -3.67127         1.59926
O          3.44081         9.66806         2.06858
H          4.15298         9.14888         2.51492
O         -5.35631        -3.05206        -0.91302
O         -1.39281         0.08791         2.69473
O         -9.11740        -0.92783         2.30931
H         -9.61135        -0.11488         2.58453
O         -3.47812         3.50109         1.81367
O          7.99777         3.44905        -1.13067
O          0.82308        -1.16687         2.71606
O          6.28254        -4.84890        -1.97202
O          3.63612         7.45799        -0.99569
O         -8.26787        -3.22614        -1.91969
H         -7.29107        -3.29718        -2.01372
O         -2.40960        -5.18168        -1.30168
H         -1.72892        -5.75153        -1.74361
O          9.37452         0.81087         0.94604
O          1.48352        -3.91481         2.84776
H          1.37040        -3.02030         3.24989
O          5.33339         1.41491         2.59901
H          5.41664         0.46426         2.87000
O         -5.21291         2.55123        -1.44541
O         -5.87529        -5.26080         1.82991
O          0.50139         0.81353        -0.28027
O          5.81078         5.25816         1.95458
O         -9.47281         1.50461         1.68129
O          2.77583        -7.36909         1.73531
H          2.79313        -8.32218         1.96064
O          8.01367        -0.38557        -2.23643
O         -0.60339        -7.12399        -1.43062
O          5.39476        -1.35819         2.55325
H          5.95553        -2.14344         2.76554
O         -4.49370         7.59509         0.68420
O          4.87327         7.55474         2.45425
H          5.45665         6.86995         2.86337
H         11.87685        -0.96552        -1.52018
H         11.94293         1.43364        -1.05661
H         10.81840         3.35331         0.70674
H          9.57121         6.04993         0.07287
H          8.16858         7.86795        -0.09263
H          6.95447         9.90639        -0.10575
H          4.87826        11.16310        -0.03548
H          2.18945        11.18746         0.76355
H         -0.19265        11.43292         0.04561
H         -2.85279        11.27213        -0.70176
H         -5.09921        10.96704        -0.59321
H         -7.12462         9.66474        -0.95432
H         -8.33060         7.44958        -0.97570
H         -8.76758         4.68088        -2.23920
H        -10.79372         3.33110        -0.67724
H        -12.19000         1.24279        -0.04078
H        -12.14397        -1.20654        -0.17350
H        -10.79788        -3.13542        -0.78498
H         -9.52580        -5.44133        -0.69900
H         -8.31639        -7.62678        -0.55463
H         -7.15169        -9.75836        -0.49434
H         -5.03948       -11.00383        -0.51302
H         -2.59898       -11.04859        -0.58521
H         -0.07307       -11.05001        -0.69131
H          2.37636       -11.01677        -1.02730
H          4.92384       -10.95775        -1.26568
H          7.04098        -9.68757        -1.25483
H          8.18878        -7.54323        -1.47545
H          9.49328        -5.29252        -1.37274
H         10.75086        -3.18313        -1.12847
