         276
 CSIRO Nanostructure Databank - Neutral Graphene Oxide Data Set
C        -10.64811         0.69501         1.70382
C         -9.45386         1.45416         1.33098
C         -8.41915         0.75553         0.61034
C         -7.26679         1.43587         0.13427
C         -6.21552         0.74054        -0.44360
C         -4.83250         1.38258        -0.44100
C         -3.90150         0.76559        -1.44430
C         -2.64829         1.48424        -1.78627
C         -1.50756         0.55108        -2.01287
C          0.26584         1.71786        -1.55917
C          1.00089         0.73272        -0.66713
C          2.22829         1.44770        -0.07993
C          3.45151         0.60599         0.30826
C          4.76309         1.42201         0.48067
C          6.05356         0.75952        -0.06821
C          7.35839         1.50801         0.26422
C          8.54025         0.71151         0.81432
C          9.85796         1.51809         0.66664
C         10.98847         0.69285         1.24779
C         -9.38714         2.81960         1.55663
C         -8.28984         3.66184         0.94933
C         -7.07116         2.82660         0.64606
C         -5.79033         3.52543         0.38336
C         -4.94559         2.88859        -0.72123
C         -3.61448         3.61401        -0.98902
C         -2.50777         2.95870        -1.44410
C         -1.22581         3.72093        -1.83770
C         -0.01032         2.99961        -1.23482
C          0.95283         3.76458        -0.34809
C          2.22906         2.95380        -0.02612
C          3.58071         3.62979        -0.02830
C          4.75047         2.92075         0.62847
C          6.06179         3.72171         0.85949
C          7.35406         2.97506         0.53995
C          8.58391         3.66251         1.05710
C          9.71697         2.93841         1.21206
C         -7.92734         4.94676         1.65145
C         -6.71682         5.61956         1.51128
C         -5.51957         4.95935         0.81831
C         -4.88538         5.77276        -0.32974
C         -3.74727         5.11008        -1.05129
C         -2.57660         5.98317        -1.54824
C         -1.25230         5.20836        -1.44615
C         -0.09079         5.85229        -1.15192
C          1.18368         5.07925        -1.06539
C          2.50832         5.76577        -1.09353
C          3.71905         5.04209        -0.52464
C          4.86033         5.84367         0.03270
C          6.18746         5.11430         0.19589
C          7.24804         5.94769         0.97128
C          8.61905         5.20468         1.02003
C         -6.59807         6.94298         2.02888
C         -5.40443         7.76918         2.02150
C         -4.90542         7.29048        -0.36341
C         -3.58099         7.96344        -0.28210
C         -2.50081         7.34642        -0.84495
C         -1.20750         8.10088        -1.04078
C         -0.01859         7.24402        -0.56153
C          1.28937         7.98253        -0.80054
C          2.51514         7.28640        -1.36028
C          3.83397         8.00070        -0.97396
C          4.90684         7.31348        -0.18041
C          6.20446         8.03064         0.01654
C          7.32402         7.35666         0.40404
C         -5.54925         9.22955         1.78282
C         -4.65843         9.89829         1.00987
C         -3.51066         9.31106         0.30522
C         -2.34576        10.03005         0.19381
C         -1.14965         9.44998        -0.35590
C          0.06620        10.06865        -0.27325
C          1.30289         9.38946        -0.65956
C          2.48911        10.13681        -0.77119
C          3.80670         9.49915        -0.83095
C          4.99066        10.16631        -0.23280
C          6.13879         9.48934         0.00520
C        -10.74243        -0.64820         1.55413
C         -9.55559        -1.47265         1.24454
C         -8.33630        -0.70727         0.65119
C         -7.38066        -1.43784        -0.15799
C         -6.47685        -0.62993        -1.05736
C         -5.19000        -1.42769        -1.28414
C         -3.87678        -0.73205        -1.41371
C         -2.59159        -1.41913        -0.93995
C         -1.37913        -0.69801        -1.49587
C         -0.07541        -1.44799        -1.60313
C          1.25733        -0.64799        -1.41005
C          2.28546        -1.43327        -0.54691
C          3.64981        -0.74094        -0.41723
C          4.77128        -1.44399         0.37839
C          6.07307        -0.70769         0.37852
C          7.34484        -1.49379         0.29628
C          8.66010        -0.70913         0.21464
C          9.81873        -1.46163         0.84530
C         10.98541        -0.65809         1.21778
C         -9.63368        -2.92317         0.97920
C         -8.61876        -3.60805         0.36344
C         -7.64445        -2.88350        -0.54689
C         -6.36680        -3.71818        -0.90883
C         -5.08026        -2.88198        -0.83097
C         -3.85109        -3.41206        -1.54349
C         -2.62243        -2.85402        -1.42155
C         -1.38836        -3.67126        -1.16947
C         -0.07423        -2.95801        -1.48431
C          1.27535        -3.69102        -1.27398
C          2.23094        -2.91216        -0.36707
C          3.42732        -3.64676         0.24999
C          4.69516        -2.92332         0.61791
C          5.98889        -3.66864         0.89651
C          7.29943        -2.94754         0.64438
C          8.55915        -3.67342         1.11931
C          9.80220        -2.80475         1.03706
C         -8.52769        -5.03420         0.51925
C         -7.45137        -5.80838         0.13022
C         -6.34691        -5.23614        -0.70302
C         -5.17425        -6.21039        -0.92356
C         -3.87139        -5.66127        -1.36754
C         -2.66279        -6.04057        -0.85411
C         -1.44967        -5.15181        -0.78210
C         -0.12224        -5.84545        -0.47582
C          1.15441        -5.10199        -0.70105
C          2.46800        -5.83902        -0.67795
C          3.49395        -5.15575         0.17017
C          4.73871        -5.91742         0.50709
C          6.03045        -5.18033         0.80079
C          7.32742        -5.84125         0.43201
C          8.63359        -5.02586         0.35499
C         -7.27666        -7.06985         0.81449
C         -6.13707        -7.84202         0.77080
C         -5.10624        -7.54751        -0.24949
C         -3.80457        -8.37076        -0.29852
C         -2.54707        -7.51777        -0.61763
C         -1.22672        -8.19153        -0.46937
C          0.03178        -7.37557        -0.26129
C          1.13898        -7.86171        -1.24852
C          2.51025        -7.31483        -0.87289
C          3.63472        -8.10782        -0.31878
C          4.80812        -7.39161         0.20251
C          6.18611        -8.04848         0.07818
C          7.36349        -7.14447         0.05733
C         -5.85747        -8.86585         1.74705
C         -4.63029        -9.45352         1.86267
C         -3.53257        -9.19749         0.95126
C         -2.30935        -9.77756         1.11215
C         -1.20802        -9.65246         0.06394
C          0.16187       -10.07687         0.59484
C          1.30655       -10.07832        -0.06843
C          2.52205       -10.35303        -0.55471
C          3.70587        -9.49011        -0.45774
C          5.01508       -10.09491        -0.59606
C          6.18067        -9.38445        -0.52362
O         -0.40200         1.13245        -2.64610
O          7.33069        -2.52891        -0.77067
O         -3.96876        -4.59626        -2.24772
O         -6.00113         2.77117         1.63906
O          3.66929        -5.73514         1.49226
O          1.91633         2.19342         1.16187
O          4.63664         2.04954         1.79355
O          4.09678         3.93089        -1.39072
O         -4.44885         4.76872         1.76921
O         -8.42536        -1.15877         2.07369
O         -6.66360        -4.60454        -1.99551
O         -4.54826        -1.27888        -2.58977
O          1.99255         5.02410        -2.26121
O          5.44576        -8.04384         1.34427
O          1.61944        -2.01501         0.60317
O         -1.80687        -8.06675        -1.78737
O          0.89124        -8.35047        -2.32681
O          3.66785        -3.19990         1.60712
O          5.97909        -4.48888         2.09281
O          4.28004         8.80679        -2.08084
O         -5.94455         7.88721        -0.59773
O          2.95538        -6.36745        -1.94137
O          7.61452         2.47057        -0.81009
O         -0.06618        -2.30595        -2.79480
O         -3.75246         1.31518        -2.77846
O         -5.65058        -7.41019        -1.61391
O          5.30550        -0.83507         1.60078
O          4.40542         6.72625         1.10529
O         -1.06451         3.60808        -3.31655
O          0.55380        -5.13739         0.61887
O         -5.04779         5.38203        -1.72442
O         -1.55926        -4.07964         0.23919
O         -4.23279         7.32041         2.13874
H         -4.23297         5.65061         2.18318
O          0.12203         0.44121         0.43830
H          0.67804         0.10289         1.17796
O          8.48708        -3.95387         2.52998
H          7.58193        -4.29326         2.74591
O          8.95984        -4.79747        -1.01845
H          8.39884        -4.06298        -1.35464
O          6.10969         3.93805         2.28174
H          5.78521         3.12030         2.72394
O          1.76914        -0.36580        -2.71630
H          1.41136        -1.04903        -3.33081
O          6.86145         6.20511         2.33265
H          5.92631         6.51779         2.32751
O          1.96496        -3.76759        -2.53092
H          1.38253        -4.17442        -3.20602
O          8.27869         0.51918         2.22020
H          8.48845         1.34908         2.69861
O         -1.04072         8.33404        -2.45941
H         -1.64662         7.72685        -2.95254
O         -7.09751        -0.44127        -2.37681
H         -6.36876        -0.22839        -3.00473
O         -8.80873         4.04433        -0.37822
H         -9.51673         4.70957        -0.24565
O         -4.18523         1.10724         0.81631
H         -4.71154         1.56222         1.52381
O          6.70778         4.96137        -1.13808
H          6.05498         4.45251        -1.67238
O          8.94579        -0.55818        -1.19509
H          8.69405        -1.40162        -1.63658
O         -2.58260        -1.36898         0.50889
H         -1.83838        -1.92215         0.83423
O         10.19667         1.73546        -0.72066
H         10.00634         0.90567        -1.21827
O          3.04682         0.10961         1.60823
H          3.26372         0.80059         2.27451
O         -2.35768         3.78385        -3.94004
H         -2.79121         2.89358        -3.86409
O          0.34643         4.14139         0.90596
H          0.38909         3.35331         1.49820
O         -4.80104        -2.91626         0.59168
H         -4.03477        -2.31136         0.79346
O          4.15706        -0.72166        -1.74938
H          3.47139        -0.38421        -2.37709
O         -2.78727         6.28798        -2.94708
H         -2.75733         5.43698        -3.45886
O         -1.51971       -10.54699        -1.00890
H         -2.32162       -10.19030        -1.46799
O         -5.72970         2.92144        -1.93483
H         -5.81435         3.86409        -2.22000
O          0.47250        -7.58698         1.08569
H          0.74641        -6.71423         1.46452
O         -8.40306        -2.75602        -1.78816
H         -7.96945        -2.06118        -2.34739
O          2.37550         7.47303        -2.78613
H          1.88277         6.69726        -3.14307
O         -3.97455        -9.33114        -1.36111
H         -4.45799        -8.87366        -2.08862
O          9.36629         5.55918        -0.14678
H          8.89637         5.18485        -0.92429
O         -0.14030         7.05861         0.88026
H          0.01669         6.10969         1.10145
O          5.92480         0.81941        -1.49371
H          6.51476         1.53999        -1.82239
H         11.86599        -1.20947         1.58420
H         11.89583         1.22290         1.57636
H         10.65172         3.45945         1.47601
H          9.18712         5.58623         1.90499
H          8.24457         7.92818         0.60077
H          7.03497        10.03346         0.33870
H          4.95633        11.25906        -0.10984
H          2.44683        11.22221        -0.59213
H          0.14464        11.08365         0.14578
H         -2.27785        11.03355         0.64189
H         -4.76829        10.99148         0.90945
H         -6.41009         9.76688         2.20930
H         -7.54206         7.44861         2.28910
H         -8.74228         5.46592         2.18288
H        -10.22772         3.32434         2.06006
H        -11.52925         1.26742         2.03124
H        -11.69813        -1.16378         1.73010
H        -10.43970        -3.48249         1.48158
H         -9.28024        -5.50273         1.17447
H         -8.05350        -7.33661         1.54865
H         -6.64684        -9.10938         2.47316
H         -4.45156       -10.17022         2.67800
H         -2.14198       -10.43764         1.97915
H          0.18795       -10.43900         1.64176
H          2.68046       -11.35459        -0.99721
H          5.04544       -11.14229        -0.93218
H          7.13039        -9.83343        -0.84880
H          8.32401        -7.57518        -0.26703
H          9.45784        -5.64387         0.79094
H         10.70464        -3.27633         1.45967
