         334
 CSIRO Nanostructure Databank - Neutral Graphene Oxide Data Set
C         30.30888        57.09672        -0.19337
C         30.29489        58.50753        -0.38208
C         29.06421        59.21858        -0.40738
C         30.25296        61.32562        -0.55262
C         29.05209        60.60364        -0.49435
C         32.78669        52.86385         0.61580
C         32.74650        54.34225         0.89864
C         31.50807        55.03501         0.40503
C         32.79457        57.05219        -0.23587
C         31.50563        56.36176         0.01589
C         32.79485        58.53473        -0.53512
C         31.50949        59.25663        -0.47974
C         32.75946        61.47143        -0.67301
C         31.48891        60.65703        -0.54466
C         35.25502        48.60403         0.58591
C         35.19841        50.00521         0.48072
C         34.00301        50.72703         0.55644
C         35.25260        52.89106         0.62608
C         33.97555        52.16422         0.57000
C         35.22924        54.32975         0.65526
C         34.04391        55.02957         0.53964
C         35.24286        57.14663         0.06228
C         34.06073        56.43341         0.19530
C         35.26124        58.57125        -0.16995
C         34.05283        59.28353        -0.35791
C         35.25151        61.38689        -0.42702
C         34.04565        60.69779        -0.45833
C         37.68829        44.21347         0.23345
C         37.69612        45.71625         0.39732
C         36.51390        46.43207         0.40012
C         37.68955        48.57615         0.31933
C         36.48627        47.87845         0.44706
C         37.70754        50.04694         0.65274
C         36.46604        50.75425         0.11701
C         37.72431        52.92079         0.52357
C         36.46128        52.21633         0.51424
C         37.76686        54.31438         0.59396
C         36.51333        55.10784         0.84124
C         37.77092        57.20957         0.36943
C         36.55016        56.39361         0.02333
C         37.73831        58.62152         0.22793
C         36.49628        59.28936        -0.07895
C         37.71394        61.41798        -0.18340
C         36.48690        60.70478        -0.23893
C         40.19820        39.99296         0.06483
C         40.18028        41.40949         0.30930
C         38.99526        42.08633         0.48082
C         40.22480        44.27826         0.54948
C         38.93162        43.54425         0.84566
C         40.19733        45.70474         0.39318
C         38.96205        46.38865         0.35846
C         40.22656        48.57799        -0.10814
C         38.92997        47.83473         0.07871
C         40.22706        50.10594        -0.18995
C         38.95355        50.79264         0.25657
C         40.21688        52.91381         0.32879
C         38.96183        52.17180         0.34366
C         40.20083        54.32917         0.47469
C         38.99667        55.04434         0.54922
C         40.20418        57.22957         0.66029
C         39.00478        56.51165         0.57266
C         40.19633        58.72999         0.87313
C         38.92802        59.38671         0.38173
C         40.17953        61.59039         0.22099
C         38.91221        60.77212         0.12363
C         42.71245        35.84329        -0.88281
C         42.67607        37.18575        -0.47825
C         41.43764        37.89874        -0.35659
C         42.68940        40.04114        -0.21399
C         41.38665        39.28287        -0.11833
C         42.65026        41.44896         0.32163
C         41.45461        42.13106         0.42450
C         42.69318        44.28438         0.57286
C         41.43584        43.57761         0.55277
C         42.68660        45.73579         0.49054
C         41.45212        46.43172         0.31921
C         42.69509        48.55045         0.33093
C         41.48128        47.84862         0.20292
C         42.69747        50.00877         0.56310
C         41.41236        50.76091         0.47777
C         42.70397        52.90434         0.39914
C         41.44574        52.23174         0.38483
C         42.73881        54.31637         0.42198
C         41.47691        55.01660         0.72181
C         42.78585        57.22455         0.64949
C         41.47670        56.51364         0.85506
C         42.73925        58.73006         0.42210
C         41.44181        59.42636         0.35108
C         42.65181        61.44177        -0.31355
C         41.43360        60.76407         0.04512
C         45.17444        33.10711        -1.48460
C         43.97593        33.78945        -1.41237
C         45.16016        35.77786        -0.56750
C         43.93891        35.13817        -0.95723
C         45.13484        37.15283        -0.14312
C         43.91337        37.82776        -0.12230
C         45.13632        39.95249         0.60773
C         43.84845        39.23054         0.32212
C         45.11830        41.42759         0.55555
C         43.91700        42.12773         0.50801
C         45.16486        44.26996         0.59307
C         43.89892        43.57195         0.63240
C         45.16865        45.74653         0.88057
C         43.89982        46.45307         0.51583
C         45.17782        48.60224         0.47108
C         43.92538        47.86184         0.44606
C         45.17219        50.02644         0.36432
C         43.95658        50.75537         0.42980
C         45.14864        52.88474         0.06108
C         43.93842        52.16573         0.32600
C         45.11917        54.28303        -0.09231
C         43.93673        55.02780         0.16949
C         45.12837        57.19047        -0.19741
C         43.96441        56.47930         0.16985
C         45.09620        58.62620        -0.34028
C         43.93103        59.37306        -0.15450
C         45.08892        61.56317        -0.85170
C         43.85631        60.78383        -0.43271
C         46.37318        33.73058        -1.08100
C         47.66046        35.64477        -0.10825
C         46.37430        35.04403        -0.62118
C         47.65080        37.15203        -0.02332
C         46.38427        37.86353         0.13928
C         47.70217        39.93429         0.73455
C         46.39784        39.21382         0.43145
C         47.66087        41.42156         0.45687
C         46.40334        42.14460         0.87309
C         47.56194        44.29607        -0.04920
C         46.34775        43.59352         0.48857
C         47.59970        45.76660         0.28305
C         46.42796        46.46483         0.47646
C         47.65010        48.61062         0.40923
C         46.41882        47.90787         0.47680
C         47.64779        50.04753         0.27672
C         46.40455        50.74349         0.20838
C         47.61420        52.81745        -0.27392
C         46.39618        52.14864        -0.01383
C         47.58689        54.22819        -0.71165
C         46.25987        54.98917        -0.77341
C         47.58667        57.12438        -0.49099
C         46.36658        56.46435        -0.43098
C         47.62750        58.59143        -0.65894
C         46.32996        59.34379        -0.73227
C         47.56685        61.45812        -0.43871
C         46.37815        60.82010        -0.58896
C         48.83630        37.83451        -0.07023
C         50.05822        39.97169        -0.08457
C         48.90602        39.25971         0.12437
C         50.10073        41.41024         0.04943
C         48.82993        42.11854         0.22206
C         50.04950        44.27172         0.10474
C         48.85678        43.56424         0.16483
C         50.05025        45.71193         0.16379
C         48.86851        46.44765         0.24619
C         50.11682        48.58494         0.37130
C         48.88918        47.89201         0.37157
C         50.11629        50.06630         0.65881
C         48.86130        50.76626         0.20562
C         50.11387        52.87634        -0.18100
C         48.86143        52.14925        -0.10611
C         50.13584        54.27036        -0.33192
C         48.88603        54.98632        -0.64618
C         50.05187        57.14467        -0.30261
C         48.85706        56.44911        -0.49330
C         50.02833        58.58054        -0.11904
C         48.86347        59.31102        -0.30576
C         50.00886        61.46672        -0.09128
C         48.83606        60.75970        -0.25511
C         51.28216        42.11452        -0.03825
C         52.49709        44.25127        -0.21847
C         51.32743        43.55953        -0.01439
C         52.48536        45.74583        -0.43486
C         51.37859        46.38724         0.39750
C         52.56624        48.56976         0.15996
C         51.34655        47.89054         0.25278
C         52.59397        50.01627         0.17533
C         51.38240        50.75566         0.25714
C         52.57535        52.85432        -0.08495
C         51.37338        52.16554         0.01269
C         52.62054        54.27157        -0.57640
C         51.34256        55.02815        -0.33250
C         52.55101        57.18643        -0.19037
C         51.32781        56.43886        -0.28527
C         52.56076        58.56316         0.08324
C         51.27058        59.25701         0.27849
C         52.55402        61.46854         0.14873
C         51.25558        60.79686         0.27769
C         53.79479        46.45587        -0.20141
C         55.04432        48.56214         0.01907
C         53.81889        47.83415         0.00648
C         55.07308        49.97628         0.07427
C         53.82919        50.69111         0.11474
C         55.07336        52.82862        -0.32661
C         53.85539        52.17938         0.32314
C         55.05206        54.32334        -0.08957
C         53.88185        55.00103        -0.18042
C         55.01616        57.19139         0.26907
C         53.87522        56.49192        -0.43442
C         55.02858        58.66662         0.26889
C         53.77459        59.32805         0.20850
C         55.01027        61.58156         0.35513
C         53.73077        60.77649         0.23427
C         56.29895        50.69755         0.11890
C         57.51650        52.82257         0.30204
C         56.35146        52.12135         0.08372
C         57.53093        54.31508         0.52344
C         56.37730        55.04075        -0.18937
C         57.57477        57.21249         0.34688
C         56.31075        56.45350         0.35442
C         57.52633        58.62791         0.35222
C         56.26753        59.34771         0.34599
C         57.48869        61.46707         0.29256
C         56.29198        60.78258         0.32094
C         58.87374        54.98930         0.17920
C         59.99565        57.23201         0.23128
C         58.80679        56.51122         0.26153
C         59.99644        58.65383         0.25799
C         58.75366        59.35469         0.30507
C         59.96898        61.48030         0.23874
C         58.74710        60.78218         0.28082
C         61.20693        59.39523         0.21762
C         61.18465        60.78458         0.21319
O         41.85619        50.29226         1.78400
O         44.23481        39.44657         1.70406
O         55.44992        56.58854         1.53396
O         32.87498        57.54699        -1.62713
O         43.03550        58.15321         1.76500
O         48.34611        54.48584        -1.94510
O         39.54164        48.05882        -1.30003
O         41.49947        55.66670         2.06473
O         47.00658        58.93183        -1.97215
O         51.15767        60.00708         1.52533
O         54.02982        52.39895         1.76757
H         53.27136        51.97566         2.22441
O         59.30641        54.60356        -1.12976
H         58.58273        54.83645        -1.75500
O         32.79203        62.08409        -1.97815
H         32.78129        61.36895        -2.64731
O         56.65124        55.12159        -1.62332
H         55.92589        55.68170        -2.00605
O         54.17022        56.59371        -1.87737
H         53.53138        55.97618        -2.32047
O         36.72272        55.99531        -1.37606
H         36.52817        56.77450        -1.93847
O         45.18836        45.78727         2.36345
H         46.00109        45.32194         2.65775
O         52.14327        45.96974        -1.84412
H         52.85286        45.57300        -2.39142
O         38.73585        43.62452         2.29492
H         39.49983        43.18518         2.72447
O         32.65926        54.45327         2.38058
H         33.47745        54.05497         2.74820
O         37.62132        50.13164         2.11374
H         38.45849        49.79261         2.49496
O         46.45810        42.15405         2.37664
H         45.54096        42.29480         2.69967
O         57.35447        54.50660         1.94921
H         56.43265        54.26755         2.18592
O         50.08463        50.16450         2.15048
H         49.21674        49.80860         2.44047
O         54.96109        52.64911        -1.77455
H         55.73587        53.10810        -2.17175
O         51.72358        46.12576         1.79308
H         51.06693        46.58506         2.35713
O         42.97977        40.17879        -1.64599
H         42.22577        40.64951        -2.05980
O         40.40497        50.44372        -1.59514
H         39.81412        49.83755        -2.10064
O         40.14784        62.68586        -0.69858
H         40.09528        62.32670        -1.60753
O         52.72886        54.20821        -2.06405
H         53.44091        53.53706        -2.24739
O         48.77906        35.17656        -0.87100
H         48.65616        35.46159        -1.79940
O         37.62167        43.92408        -1.17288
H         38.28453        44.47900        -1.63368
O         55.04568        62.61400        -0.64452
H         55.13618        62.18719        -1.52094
O         40.23816        58.90374         2.33229
H         41.08960        58.50654         2.63350
O         45.85248        54.99774        -2.18161
H         46.68696        55.07099        -2.70411
O         47.88061        39.80608         2.18892
H         47.31629        40.50312         2.60674
O         47.37171        44.25730        -1.52129
H         48.15366        44.69226        -1.92488
O         45.09436        62.85989        -0.25307
H         45.10060        62.75186         0.71980
O         36.56874        50.72510        -1.33328
H         35.79424        51.19973        -1.70121
O         36.53034        55.50790         2.24514
H         36.73609        54.71741         2.78647
H         29.34582        56.57632        -0.07842
H         28.12011        58.65865        -0.34500
H         30.23309        62.42207        -0.62324
H         28.09442        61.14246        -0.51130
H         31.83438        52.31139         0.61039
H         30.54765        54.51627         0.55144
H         32.72235        62.31820         0.06274
H         34.32435        48.03985         0.75172
H         33.05165        50.18730         0.68488
H         35.25708        62.48026        -0.54407
H         36.77603        43.77045         0.70319
H         35.55658        45.88966         0.39611
H         37.71836        62.50453        -0.35351
H         39.23824        39.45421         0.05233
H         38.04542        41.53255         0.42989
H         40.22581        62.04615         1.24898
H         41.77907        35.32990        -1.15802
H         40.49705        37.33415        -0.44978
H         42.60502        62.52385        -0.50380
H         45.19827        32.06860        -1.84336
H         43.03717        33.30114        -1.71112
H         45.02633        61.73019        -1.96507
H         47.32191        33.17701        -1.12270
H         47.81632        35.25609         0.93950
H         47.58104        62.55844        -0.40261
H         49.76503        37.28037        -0.27738
H         50.97302        39.45106        -0.40869
H         50.01536        62.55954        -0.22107
H         52.22888        41.56749        -0.16578
H         53.43618        43.69687        -0.37726
H         52.57774        62.56469         0.05256
H         54.73941        45.92218        -0.39487
H         55.99254        48.00898        -0.05598
H         54.97167        62.11692         1.34428
H         57.23870        50.13575         0.23350
H         58.43228        52.26659         0.55978
H         57.47922        62.56675         0.26495
H         59.64864        54.62380         0.90017
H         60.95515        56.69680         0.17852
H         59.96366        62.57961         0.22362
H         62.16492        58.85678         0.18455
H         62.12927        61.34556         0.18154
