         600
 CSIRO Nanostructure Databank - Neutral Graphene Oxide Data Set
C         23.06669        27.38042        -0.51795
C         23.09712        28.68588        -0.10268
C         23.05015        31.59372         0.16975
C         23.01827        32.96704         0.20493
C         23.00993        35.88301        -0.31180
C         23.02155        37.26637        -0.42787
C         23.05532        40.21832        -0.68584
C         23.07634        41.61390        -0.88126
C         23.09863        44.55138        -1.19876
C         23.13011        45.92466        -1.31572
C         25.18970        25.05430        -2.48962
C         24.11118        25.53016        -1.76047
C         25.46502        27.47884        -1.08664
C         24.22015        26.77745        -1.10649
C         25.49576        28.82987        -0.62453
C         24.28684        29.46674        -0.22339
C         25.48918        31.62089        -0.09804
C         24.27308        30.88696        -0.02274
C         25.47372        33.04178         0.09192
C         24.21381        33.73634         0.15895
C         25.35250        35.93563         0.41147
C         24.15700        35.16307         0.08447
C         25.39966        37.37084         0.12822
C         24.20104        38.03930        -0.23478
C         25.45573        40.18371        -0.21376
C         24.20895        39.48307        -0.36042
C         25.42162        41.69556        -0.07538
C         24.22316        42.37533        -0.69110
C         25.49927        44.51420        -0.72316
C         24.26985        43.80937        -0.87408
C         25.55026        45.92498        -0.89731
C         24.34522        46.64195        -1.15697
C         25.56030        48.74769        -1.06270
C         24.38397        48.06187        -1.25482
C         28.39545        23.22444        -2.72275
C         28.37907        24.62379        -2.58383
C         26.41160        25.74356        -2.44430
C         27.95126        27.49541        -1.43123
C         26.64190        26.88290        -1.64474
C         27.94867        28.86248        -0.99040
C         26.72594        29.55302        -0.67852
C         27.94869        31.68693        -0.38741
C         26.72774        30.94900        -0.37214
C         27.94136        33.09849        -0.15111
C         26.70376        33.74986         0.09919
C         27.93738        35.95559         0.28411
C         26.71268        35.16871         0.44187
C         27.87697        37.35297         0.36438
C         26.63835        38.05913         0.20765
C         27.94324        40.15919        -0.19732
C         26.63702        39.48058        -0.00986
C         27.97124        41.66020        -0.42146
C         26.71044        42.40740        -0.37570
C         27.99220        44.50338        -0.45441
C         26.73232        43.78334        -0.49279
C         28.00644        45.90030        -0.61910
C         26.79839        46.63778        -0.81147
C         27.99269        48.81243        -0.54886
C         26.79427        48.06769        -0.83311
C         27.97905        50.15896        -0.14126
C         30.50476        23.15274        -1.54168
C         29.41023        22.48637        -2.13862
C         30.48448        24.58205        -1.44653
C         29.31975        25.33923        -1.82580
C         30.39599        27.43923        -1.11579
C         29.20194        26.77366        -1.50545
C         30.40372        28.85965        -0.88511
C         29.17647        29.57970        -0.83538
C         30.41669        31.69706        -0.44780
C         29.18829        30.98858        -0.56190
C         30.42534        33.14100        -0.28848
C         29.16846        33.84683        -0.13341
C         30.39445        36.01196         0.01310
C         29.17150        35.25562         0.05729
C         30.40617        37.36746         0.31010
C         29.14313        38.09536         0.71663
C         30.37314        40.22412         0.25271
C         29.17708        39.52271         0.23964
C         30.40613        41.66243         0.09927
C         29.22391        42.38104        -0.15698
C         30.43778        44.50715         0.04380
C         29.21510        43.79812        -0.20077
C         30.49294        45.91699        -0.13302
C         29.30568        46.58336        -0.65422
C         30.49559        48.82634        -0.12611
C         29.29433        48.15597        -0.63235
C         30.41971        50.21340         0.16905
C         29.15216        50.84834         0.15084
C         32.83782        20.30904        -0.70521
C         31.68645        20.99808        -1.02503
C         32.88410        23.11330        -0.85717
C         31.67754        22.41526        -1.12389
C         32.88954        24.54593        -0.89395
C         31.68268        25.26843        -1.10603
C         32.84452        27.38610        -0.80584
C         31.65174        26.71172        -1.02309
C         32.84330        28.79903        -0.42804
C         31.61130        29.56340        -0.61975
C         32.91057        31.66783        -0.38682
C         31.64465        30.96873        -0.47342
C         32.89265        33.13663        -0.50704
C         31.62450        33.84777        -0.32944
C         32.91732        36.00845         0.04768
C         31.65563        35.35076        -0.48743
C         32.89487        37.39414         0.37807
C         31.62973        38.10901         0.39948
C         32.82359        40.25394         0.69882
C         31.61492        39.51401         0.50095
C         32.83792        41.64588         0.65607
C         31.62046        42.37820         0.36682
C         32.80067        44.53207         0.91625
C         31.61578        43.77993         0.37303
C         32.88003        45.97032         0.47782
C         31.70157        46.65282         0.09052
C         32.89997        48.80164         0.38742
C         31.69836        48.09638         0.05955
C         32.87285        50.22726         0.53905
C         31.63840        50.93303         0.47926
C         32.81657        53.00720         0.99033
C         31.64498        52.32977         0.69812
C         35.32248        18.84728        -0.08667
C         35.30282        20.25892        -0.25432
C         34.07883        20.97725        -0.51670
C         35.33873        23.10703        -0.47487
C         34.09904        22.39831        -0.60875
C         35.34618        24.54043        -0.57753
C         34.13867        25.22706        -0.77899
C         35.43455        27.43064        -0.78382
C         34.12697        26.68489        -0.94258
C         35.43124        28.86011        -0.43854
C         34.15205        29.54383        -0.22923
C         35.39277        31.69753        -0.08819
C         34.13137        31.01243        -0.30152
C         35.41027        33.13352         0.05837
C         34.19765        33.89096        -0.29024
C         35.34432        35.99054         0.41175
C         34.13207        35.32030         0.08445
C         35.32615        37.39128         0.65493
C         34.08587        38.07356         0.67235
C         35.33850        40.24532         0.90533
C         34.04963        39.50105         1.15017
C         35.32935        41.65814         0.88008
C         34.08786        42.38324         0.80838
C         35.33058        44.50358         0.91424
C         34.10091        43.77969         0.79859
C         35.32740        45.94909         0.88430
C         34.10671        46.65925         0.64393
C         35.33785        48.80716         0.77525
C         34.11396        48.09266         0.58185
C         35.32752        50.22432         0.86548
C         34.08429        50.93229         0.81534
C         35.28125        53.02029         1.42370
C         34.05471        52.33102         1.06677
C         35.24996        54.33370         1.92425
C         37.74506        18.83865         0.21512
C         36.49439        18.16520         0.16120
C         37.76067        20.24544         0.02523
C         36.53675        20.96720        -0.16665
C         37.79559        23.11114        -0.15982
C         36.54974        22.39557        -0.27969
C         37.82476        24.52099        -0.24093
C         36.60275        25.26412        -0.46027
C         37.93749        27.40950        -0.61556
C         36.64316        26.65109        -0.50803
C         37.87168        28.84221        -0.14460
C         36.61545        29.54353        -0.16543
C         37.77880        31.60874         0.70475
C         36.56465        30.95894         0.10588
C         37.81625        33.10646         0.57487
C         36.57821        33.81905         0.42145
C         37.77017        35.96441         0.77120
C         36.58251        35.27028         0.52165
C         37.78221        37.39125         0.84301
C         36.56253        38.10158         0.82805
C         37.80234        40.25037         0.92482
C         36.55840        39.53953         0.90210
C         37.80341        41.66268         0.99246
C         36.56218        42.37937         0.96678
C         37.79464        44.51851         1.44821
C         36.54256        43.79459         1.03533
C         37.80089        45.97877         1.08713
C         36.56722        46.66628         0.95592
C         37.79742        48.81669         0.98065
C         36.56893        48.09824         0.89572
C         37.79345        50.24456         1.05902
C         36.55308        50.93590         1.05336
C         37.76937        53.01817         1.58674
C         36.53289        52.33533         1.32900
C         37.64600        54.28055         2.23167
C         36.41840        54.92309         2.40115
C         40.17419        16.13694         1.23263
C         38.99524        16.78068         0.91591
C         40.22584        18.80880         0.30913
C         38.98237        18.13133         0.47118
C         40.23979        20.23537         0.09929
C         39.01178        20.95327         0.05437
C         40.23869        23.08295         0.21455
C         39.01250        22.37835         0.02513
C         40.23507        24.50296         0.24491
C         39.05781        25.23401        -0.03068
C         40.31397        27.37395         0.18017
C         39.11400        26.65818        -0.06890
C         40.32248        28.81211         0.15142
C         39.07270        29.52871         0.10383
C         40.28064        31.65001         0.42974
C         39.07660        30.93703         0.35190
C         40.27726        33.07902         0.62979
C         39.02678        33.77546         0.72038
C         40.29298        35.96313         0.81070
C         39.02669        35.22192         1.14364
C         40.27708        37.37756         0.79998
C         39.03659        38.10471         0.87915
C         40.28039        40.23955         0.83967
C         39.04073        39.51834         0.88781
C         40.28343        41.66475         0.89111
C         39.05383        42.38757         1.00324
C         40.28574        44.51905         1.04407
C         39.06608        43.79340         1.09127
C         40.28305        45.95627         1.05692
C         39.03161        46.67707         1.05091
C         40.26376        48.83218         0.93246
C         39.03257        48.10482         0.99525
C         40.26052        50.25219         0.91047
C         39.02694        50.98633         1.07555
C         40.22504        53.19701         0.77688
C         39.02542        52.38601         1.27835
C         40.55292        54.58209         1.35347
C         39.76978        55.35084         2.21316
C         41.03024        57.38013         1.81606
C         40.02587        56.71940         2.48486
C         42.66943        16.12823         1.33495
C         41.42659        16.77877         1.03106
C         42.73157        18.68298         0.15177
C         41.44069        18.09184         0.51150
C         42.75492        20.24296        -0.11004
C         41.47518        20.96012         0.07692
C         42.74081        23.09839         0.22964
C         41.46638        22.34609         0.24569
C         42.72775        24.47454         0.79820
C         41.44388        25.23274         0.65886
C         42.76357        27.37419         0.52826
C         41.51898        26.69015         0.49299
C         42.77375        28.79919         0.39758
C         41.53703        29.51266         0.28995
C         42.74866        31.66069         0.34039
C         41.53705        30.95149         0.33095
C         42.73834        33.10445         0.42156
C         41.50025        33.79975         0.61073
C         42.73396        35.95708         0.54060
C         41.49942        35.24509         0.66543
C         42.73714        37.38318         0.57375
C         41.50915        38.09673         0.69386
C         42.74513        40.23846         0.66970
C         41.50878        39.52461         0.73154
C         42.74706        41.66199         0.74918
C         41.51909        42.38166         0.86867
C         42.76588        44.51862         0.97653
C         41.52357        43.80715         0.94964
C         42.76287        45.96735         0.98069
C         41.50782        46.67309         0.97300
C         42.71655        48.81182         0.69725
C         41.49901        48.10219         0.88354
C         42.70922        50.23287         0.55749
C         41.48907        50.96824         0.71863
C         42.68534        53.04500         0.23489
C         41.50105        52.38080         0.63849
C         42.72874        54.48652         0.14464
C         41.69504        55.24278         0.79060
C         42.97724        57.29282         0.30545
C         41.89110        56.64495         0.96352
C         43.88208        16.75538         1.15515
C         45.21622        18.75045         0.42000
C         43.98067        18.05433         0.57442
C         45.23790        20.18273         0.21659
C         44.03580        20.90083         0.09581
C         45.31708        23.04022         0.42626
C         44.05458        22.36077         0.13892
C         45.32175        24.47524         0.74258
C         44.01998        25.23038         0.90001
C         45.24398        27.36607         0.56775
C         44.01642        26.68245         0.66738
C         45.24363        28.79790         0.45208
C         44.00694        29.50710         0.40789
C         45.21986        31.63457         0.24238
C         44.00241        30.94023         0.31642
C         45.19735        33.09568        -0.12203
C         43.94784        33.82405         0.31181
C         45.20233        35.96092         0.28722
C         43.96017        35.23814         0.38114
C         45.20204        37.38381         0.34028
C         43.97322        38.10152         0.47869
C         45.21264        40.24716         0.47877
C         43.97552        39.52484         0.54141
C         45.22032        41.66585         0.59645
C         43.98394        42.37643         0.74023
C         45.26146        44.47658         1.07036
C         43.97506        43.78651         0.90784
C         45.26109        46.00170         1.05507
C         43.96994        46.69600         0.88989
C         45.17118        48.82210         0.44245
C         43.95919        48.10367         0.66697
C         45.14888        50.19327         0.12510
C         43.91056        50.91236         0.21605
C         45.03932        52.97559        -0.55506
C         43.87980        52.31216        -0.02871
C         44.99289        54.36182        -0.84778
C         43.85731        55.13878        -0.40013
C         43.91457        56.56583        -0.38236
C         47.66185        18.75950         0.45949
C         46.46722        18.08161         0.55859
C         47.70415        20.16978         0.27603
C         46.50359        20.89133         0.20636
C         47.74150        23.10307         0.23090
C         46.51689        22.35393         0.24785
C         47.76182        24.51911         0.33619
C         46.54590        25.24674         0.50227
C         47.74557        27.37911         0.41409
C         46.50866        26.65112         0.51339
C         47.72593        28.81240         0.42118
C         46.47528        29.51358         0.40519
C         47.69438        31.66479         0.33993
C         46.45669        30.93877         0.30643
C         47.67369        33.12046         0.30703
C         46.47147        33.82359         0.20578
C         47.66917        35.97548         0.16920
C         46.44073        35.25047         0.22228
C         47.66513        37.39975         0.12093
C         46.43469        38.10852         0.24705
C         47.67568        40.24692         0.21936
C         46.43673        39.53246         0.30897
C         47.68879        41.66786         0.34794
C         46.46778        42.37921         0.54555
C         47.71973        44.51237         0.57354
C         46.50827        43.78419         0.71766
C         47.70304        45.96841         0.50969
C         46.51507        46.66895         0.67263
C         47.70802        48.84373         0.04939
C         46.46776        48.13401         0.56278
C         47.54725        50.18157        -0.54004
C         46.32907        50.87373        -0.36553
C         47.37203        52.87334        -1.38573
C         46.24290        52.23610        -0.78965
C         47.24926        54.23921        -1.76802
C         46.10941        54.96075        -1.49103
C         50.28115        20.25753         0.45043
C         49.00084        20.86437         0.06249
C         50.26404        23.13514         0.18167
C         49.00103        22.39740        -0.00700
C         50.23135        24.53299         0.19607
C         48.99859        25.24900         0.25736
C         50.22615        27.41654         0.36847
C         48.97963        26.67821         0.32584
C         50.20752        28.83922         0.49101
C         48.94477        29.54631         0.46120
C         50.15731        31.72984         0.80984
C         48.90414        30.96791         0.47104
C         50.15491        33.16063         0.33944
C         48.92204        33.84449         0.28703
C         50.12394        35.96930        -0.05533
C         48.90125        35.26295         0.14016
C         50.09880        37.38630        -0.21249
C         48.89717        38.10920        -0.05972
C         50.11161        40.29006        -0.05989
C         48.89261        39.55212        -0.01197
C         50.14063        41.66194         0.17984
C         48.92404        42.37984         0.33772
C         50.17805        44.51723         0.15832
C         48.93696        43.80916         0.39014
C         50.13336        45.93674        -0.07883
C         48.91914        46.65325         0.08709
C         49.99801        48.63419        -0.88590
C         48.89231        48.02550        -0.26646
C         49.83673        49.96484        -1.51005
C         48.63865        50.77822        -1.21232
C         49.80135        52.77980        -2.04645
C         48.58505        52.13172        -1.60294
C         51.43669        20.97455         0.47753
C         52.71998        23.11333         0.43789
C         51.49935        22.40764         0.29222
C         52.74326        24.55204         0.41463
C         51.51125        25.27941        -0.07545
C         52.68466        27.41486         0.46540
C         51.46379        26.72796         0.32156
C         52.68571        28.84399         0.53002
C         51.43844        29.55692         0.53154
C         52.61959        31.71040         0.42865
C         51.43345        30.99119         0.51220
C         52.64274        33.12987         0.17427
C         51.37289        33.84873         0.10273
C         52.56396        35.93571        -0.58663
C         51.34013        35.23989        -0.15331
C         52.63318        37.40585        -0.52698
C         51.33659        38.10300        -0.56644
C         52.65082        40.28583        -0.34568
C         51.34995        39.60281        -0.46782
C         52.66393        41.66729        -0.13626
C         51.44842        42.37164         0.42125
C         52.63125        44.53273        -0.13055
C         51.39806        43.83621         0.07719
C         52.58733        45.94583        -0.42692
C         51.31916        46.61681        -0.48162
C         52.43888        48.64335        -1.39606
C         51.24599        47.96363        -0.94240
C         52.38762        49.98114        -1.87217
C         51.07915        50.66512        -2.04302
C         50.98678        52.12829        -2.16981
C         55.13342        23.08875         0.86007
C         53.98702        22.42811         0.58342
C         55.14410        24.55704         1.18659
C         53.91144        25.25989         0.65940
C         55.15355        27.40286         0.65039
C         53.93223        26.70203         0.58148
C         55.16852        28.84224         0.60823
C         53.92004        29.53097         0.59286
C         55.18471        31.73534         0.44178
C         53.89331        30.99705         0.63836
C         55.13333        33.13758        -0.00198
C         53.85870        33.78973        -0.06549
C         55.11248        35.94555        -0.53935
C         53.86138        35.17313        -0.56814
C         55.09824        37.35717        -0.56211
C         53.83350        38.09060        -0.53986
C         55.08723        40.25541        -0.45932
C         53.86416        39.55312        -0.48286
C         55.10689        41.67150        -0.42121
C         53.87938        42.38549        -0.25249
C         55.12953        44.53565        -0.20655
C         53.85653        43.81911        -0.18508
C         55.07096        46.05967        -0.48542
C         53.76078        46.65937        -0.74186
C         54.90490        48.65612        -1.66476
C         53.70262        47.98380        -1.28048
C         54.81015        49.97885        -2.12710
C         53.58070        50.62776        -2.22075
C         57.66094        24.58737         0.78314
C         56.43049        25.27587         0.82716
C         57.63722        27.39091         0.50718
C         56.41013        26.67714         0.66790
C         57.65353        28.82224         0.44198
C         56.41206        29.54631         0.52991
C         57.61303        31.65496         0.05472
C         56.44336        30.97309         0.30636
C         57.57768        33.02320        -0.58946
C         56.31420        33.79887        -0.31257
C         57.55772        35.92829        -0.61011
C         56.32964        35.22766        -0.49428
C         57.53652        37.33814        -0.72501
C         56.33388        38.04918        -0.60255
C         57.59852        40.23949        -0.76913
C         56.38306        39.51405        -0.24776
C         57.57934        41.66677        -0.80529
C         56.35813        42.39127        -0.56636
C         57.56900        44.52290        -0.80716
C         56.38048        43.80534        -0.52907
C         57.60107        46.04287        -0.69811
C         56.27640        46.70796        -1.00341
C         57.40508        48.62675        -2.00509
C         56.19776        47.97922        -1.55938
C         58.85216        25.25921         0.57197
C         60.08554        27.38538         0.29621
C         58.86759        26.67202         0.44775
C         60.08818        28.76919         0.24384
C         58.88953        29.50781         0.31052
C         60.10901        31.73303        -0.14899
C         58.92253        31.02061         0.44495
C         60.07570        33.05909        -0.41240
C         58.84674        33.82923        -0.40667
C         60.01116        36.03354        -0.25222
C         58.82230        35.21226        -0.47410
C         60.00375        37.36881        -0.45161
C         58.82042        38.02849        -1.12169
C         59.94870        40.25868        -1.35622
C         58.77773        39.53902        -1.02741
C         59.95708        41.63976        -1.36189
C         58.78073        42.38121        -1.08372
C         59.95747        44.55920        -1.40388
C         58.77261        43.82693        -1.08678
C         59.92592        45.92799        -1.63076
C         58.74187        46.66183        -1.46132
C         58.62105        47.97788        -1.96230
O         29.52211        47.38879        -1.85215
O         51.19048        38.94334        -1.77773
O         27.40552        25.30377        -3.32647
O         45.35676        45.25377         2.31724
O         28.04838        40.72509        -1.56768
O         25.98409        35.51735         1.66179
O         41.91716        24.68018         1.98113
O         54.63351        31.56448         1.80412
O         42.74839        19.26625        -1.18310
O         43.40560        23.02524        -1.07313
O         55.25057        45.51828         0.88540
O         38.69919        54.84462         2.93868
O         33.41759        28.99040         0.93993
O         47.39154        48.81816         1.48686
O         34.87964        27.16599        -2.14823
O         44.75520        24.78682         2.09240
O         33.69847        33.63650        -1.66368
O         49.02903        21.56217        -1.22751
O         53.11430        35.35609        -1.83170
O         50.17058        49.94353        -2.94555
O         38.17064        27.49167        -2.08740
H         37.29817        27.64319        -2.51416
O         39.00575        35.16717         2.62670
H         38.14636        34.77272         2.88961
O         37.75341        44.49972         2.93670
H         38.56322        44.95622         3.25149
O         58.98061        37.76078        -2.55955
H         59.06210        36.78960        -2.66919
O         59.04385        31.26388         1.90104
H         58.26644        30.84832         2.33308
O         33.93605        39.40646         2.62212
H         33.98063        40.31941         2.97805
O         37.63162        31.37883         2.17385
H         38.45812        31.69792         2.59711
O         57.51773        32.73022        -2.04425
H         57.34642        33.57851        -2.50673
O         29.15221        38.15689         2.19037
H         29.01800        37.24478         2.52553
O         39.79857        53.48982        -0.60842
H         40.57600        53.85835        -1.08137
O         45.14245        33.11274        -1.60499
H         44.32231        32.64345        -1.86985
O         51.62111        25.29871        -1.55118
H         51.58495        24.36680        -1.85715
O         51.63362        42.31117         1.88898
H         52.38241        42.90457         2.11299
O         55.06001        24.64801         2.65880
H         54.22406        24.21159         2.92852
O         57.86806        46.32858         0.72807
H         57.04978        46.05652         1.21339
O         50.13626        31.81866         2.29126
H         50.99078        32.21080         2.57321
O         56.55620        39.49985         1.22371
H         56.60087        40.43425         1.52023
O         31.68813        35.57508        -1.94204
H         32.44691        35.03825        -2.27956
O         25.23895        41.89408         1.39186
H         24.36765        41.50663         1.62506
O         32.54832        44.62372         2.37891
H         32.48448        43.70564         2.71935
H         22.13556        26.79870        -0.45989
H         22.18272        29.13743         0.30339
H         22.10313        31.04319         0.23848
H         22.05162        33.47872         0.30786
H         22.08123        35.34266        -0.54309
H         22.08952        37.76705        -0.72197
H         22.10243        39.69716        -0.84771
H         22.14406        42.09167        -1.21426
H         22.14055        44.03023        -1.32871
H         22.20661        46.48051        -1.53317
H         25.10327        24.15519        -3.11318
H         23.14898        24.99947        -1.76634
H         25.55549        49.84435        -1.12722
H         23.45340        48.60796        -1.46654
H         27.60239        22.73507        -3.30259
H         27.02385        50.69635        -0.06317
H         29.40666        21.39312        -2.23602
H         29.07206        51.90933         0.42127
H         32.78676        19.21489        -0.62750
H         30.76017        20.43008        -1.18600
H         32.76799        54.09233         1.15078
H         30.70964        52.90185         0.63912
H         34.38648        18.27573        -0.14131
H         34.29973        54.87168         2.03271
H         36.45286        17.07521         0.28920
H         36.38653        55.89045         2.91854
H         40.15448        15.11057         1.62611
H         38.04659        16.24700         1.06325
H         41.19693        58.45617         1.96376
H         39.36613        57.24646         3.18631
H         42.63873        15.11430         1.75892
H         43.07194        58.38496         0.38968
H         44.79893        16.23202         1.46070
H         44.76043        57.08753        -0.84851
H         48.60071        18.19167         0.51225
H         46.48633        16.99128         0.69051
H         48.07893        54.74279        -2.28129
H         46.07027        56.01747        -1.78729
H         50.30534        19.19785         0.74196
H         49.79220        53.86871        -2.19236
H         52.36043        20.44423         0.74663
H         51.89706        52.70906        -2.37528
H         56.06187        22.51092         0.96644
H         54.02732        21.34145         0.42416
H         55.70924        50.53191        -2.42640
H         53.55835        51.65835        -2.59955
H         57.69131        23.49886         0.92330
H         57.36059        49.63437        -2.43644
H         59.80079        24.70494         0.53341
H         61.03210        26.82850         0.24628
H         61.05007        29.29291         0.16031
H         61.07041        31.20381        -0.21362
H         61.00689        33.56955        -0.70408
H         60.91052        35.54589         0.15157
H         60.90528        37.96270        -0.23948
H         60.86723        39.70956        -1.60564
H         60.89574        42.15589        -1.60047
H         60.90075        44.02587        -1.57569
H         60.81873        46.43262        -2.02991
H         59.51082        48.46232        -2.39221
