         324
 CSIRO Nanostructure Databank - Neutral Graphene Oxide Data Set
C          1.43702         1.95229        -1.25106
C          1.41011         3.35224        -1.29990
C          2.59753         1.28237        -0.89755
C          2.54624         4.11970        -0.96495
C          1.47514         6.27748        -1.59474
C          1.46823         7.67326        -1.65429
C          2.52913         5.56430        -1.02071
C          2.59035         8.44222        -1.23645
C          1.52979        10.63082        -1.86166
C          1.56394        12.04697        -1.97412
C          2.57654         9.89569        -1.33398
C          2.63776        12.81420        -1.54911
C          1.67632        15.00675        -2.25887
C          1.76949        16.40358        -2.45891
C          2.67767        14.26075        -1.64321
C          2.86983        17.13662        -2.03352
C          3.11274        18.49044        -2.44718
C          3.77602         2.01176        -0.57107
C          3.74287         3.44136        -0.57618
C          4.97945         1.32890        -0.28252
C          4.94255         4.18052        -0.26404
C          3.61402         6.33045        -0.30116
C          3.72039         7.78013        -0.71339
C          4.93132         5.59650        -0.25695
C          4.95491         8.49149        -0.48292
C          3.72549        10.62302        -0.76380
C          3.75218        12.13883        -0.85262
C          4.98809         9.89554        -0.58930
C          5.05611        12.84835        -0.73067
C          3.77920        14.96783        -0.96353
C          3.86604        16.50072        -1.16269
C          5.05084        14.25752        -0.68449
C          5.15522        17.15154        -0.95854
C          4.27175        19.13491        -2.11960
C          5.32946        18.47598        -1.37919
C          6.17419         2.03092        -0.00876
C          6.14700         3.46880         0.01690
C          7.39167         1.34314         0.20950
C          7.34461         4.18538         0.33215
C          6.13950         6.32618        -0.05706
C          6.14368         7.75771        -0.15921
C          7.32592         5.60810         0.27500
C          7.34589         8.52454         0.22540
C          6.29254        10.64001        -0.71782
C          6.25117        12.13917        -0.53906
C          7.39649        10.01749         0.10172
C          7.47274        12.82759        -0.31591
C          6.24173        14.95523        -0.37129
C          6.17297        16.45004        -0.09028
C          7.43838        14.24482        -0.17051
C          7.51862        17.13089        -0.09601
C          6.51678        19.17653        -1.04366
C          7.59697        18.52896        -0.39626
C          8.59199         2.04104         0.48421
C          8.55111         3.46302         0.58618
C          9.82844         1.35635         0.67520
C          9.77454         4.15916         1.01378
C          8.61048         6.32782         0.34220
C          8.64989         7.81824         0.24158
C          9.78871         5.67360         0.96183
C          9.88321         8.55811         0.58959
C          8.70846        10.71988         0.07862
C          8.72688        12.08403        -0.16668
C          9.89694         9.96328         0.42230
C         10.04105        12.82130        -0.40896
C          8.65695        14.95640         0.31520
C          8.66457        16.45092         0.32128
C          9.98902        14.23947         0.20151
C          9.85050        17.17148         0.66806
C          8.80460        19.22089        -0.14450
C          9.92327        18.60367         0.44031
C         11.05708         2.03585         0.86012
C         11.06917         3.47048         0.97779
C         12.28551         1.34269         0.93578
C         12.27143         4.19925         1.00765
C         11.07801         6.38486         0.91154
C         11.07766         7.82564         0.80611
C         12.25705         5.64649         0.97842
C         12.31655         8.53565         0.96677
C         11.14145        10.65871         0.52029
C         11.23782        12.00154         0.08228
C         12.34257         9.95402         0.85941
C         12.53154        12.53008         0.01426
C         11.19000        15.11009         0.35449
C         11.03600        16.39472         0.94699
C         12.50324        14.66420         0.17587
C         12.19094        16.95686         1.53654
C         11.13280        19.40505         0.50146
C         12.25284        19.09496         1.26889
C         13.51478         2.03676         1.03469
C         13.52942         3.48180         1.02523
C         14.73879         1.33514         1.06620
C         14.76885         4.15079         1.03872
C         13.52976         6.37627         0.80813
C         13.54246         7.83016         1.06745
C         14.82466         5.60902         0.84319
C         14.75541         8.51378         1.27323
C         13.58122        10.64457         1.04138
C         13.65654        12.04165         0.71485
C         14.75412         9.92175         1.37607
C         14.80286        12.85757         1.07771
C         13.63940        15.14285         0.86974
C         13.47625        16.42368         1.46708
C         14.81426        14.31214         1.12719
C         14.64120        17.24185         1.91304
C         13.60433        19.48589         1.11469
C         14.71542        18.70571         1.56246
C         15.97999         2.00929         1.08197
C         16.00159         3.45050         1.09605
C         17.20012         1.30371         0.99912
C         17.24787         4.15295         1.09831
C         16.08881         6.32044         1.09626
C         16.05533         7.79999         1.11147
C         17.27628         5.60909         1.15980
C         17.33993         8.52763         1.37398
C         15.94184        10.67389         1.84863
C         15.86770        12.16451         1.74149
C         17.28767         9.92352         1.95837
C         16.88388        12.93872         2.30369
C         15.95192        15.00682         1.64162
C         15.93544        16.46417         1.94310
C         17.10069        14.30123         2.04289
C         17.21812        17.16844         1.86966
C         15.98625        19.28144         1.49688
C         17.21872        18.56552         1.67978
C         18.42922         1.98610         0.91369
C         18.45649         3.42609         1.01289
C         19.63000         1.27132         0.67676
C         19.72211         4.10705         0.95886
C         18.56343         6.29405         1.20285
C         18.61133         7.73559         1.41208
C         19.74382         5.55693         1.07257
C         19.80749         8.41026         1.52831
C         18.60259        10.61821         1.99448
C         18.77421        11.87828         2.51919
C         19.84598         9.82646         1.92099
C         19.90715        12.75253         2.23539
C         18.44547        14.91610         2.33432
C         18.47094        16.44047         2.13435
C         19.74844        14.14890         2.14997
C         19.72026        17.12770         1.76425
C         18.45736        19.25189         1.60451
C         19.68843        18.55003         1.56666
C         20.86093         1.93359         0.54085
C         20.89023         3.35932         0.73463
C         22.03951         1.20451         0.16943
C         22.20327         4.03049         0.61831
C         21.02041         6.28190         0.89591
C         21.08977         7.77095         1.19364
C         22.30481         5.50477         0.82657
C         22.36796         8.41332         1.47236
C         21.15085        10.57145         2.02728
C         21.13133        12.05251         1.88896
C         22.48839         9.85731         1.88961
C         22.24846        12.70222         1.37830
C         20.97012        14.94330         1.87345
C         20.90491        16.40614         1.55909
C         22.23179        14.17967         1.41731
C         22.05522        17.09950         1.11068
C         20.89780        19.23875         1.32802
C         22.08807        18.53086         1.07858
C         23.31158         1.79555         0.10997
C         23.42852         3.17463         0.61707
C         24.52293         1.13915        -0.19410
C         24.72782         3.95903         0.37043
C         23.61598         6.17375         1.17194
C         23.68340         7.68023         1.48890
C         24.81872         5.44869         0.62970
C         24.75549         8.39476         0.66462
C         23.53303        10.56613         1.04620
C         23.45745        12.00449         0.95819
C         24.66621         9.85130         0.65988
C         24.58569        12.72626         0.50429
C         23.21016        14.88753         0.53894
C         23.18167        16.38458         0.49116
C         24.48503        14.16558         0.18091
C         24.44930        17.13554         0.15021
C         23.31050        19.22975         0.82406
C         24.50349        18.58167         0.47517
C         25.72356         1.86956        -0.43482
C         25.71931         3.29044        -0.42102
C         27.00242         1.23523        -0.57744
C         26.65028         4.09336        -1.28545
C         25.88464         6.23919        -0.05106
C         25.80446         7.70720         0.06145
C         26.77616         5.58502        -0.88076
C         26.79201         8.50288        -0.73567
C         25.88712        10.61870         0.36627
C         25.81048        12.07099         0.21974
C         27.06111         9.91185        -0.31134
C         26.95241        12.78669        -0.20188
C         25.73676        14.94108        -0.00424
C         25.72417        16.38851         0.00077
C         26.92635        14.22684        -0.15026
C         26.88227        17.12904        -0.19473
C         25.71375        19.26469         0.28912
C         26.89229        18.58826        -0.15099
C         28.15172         2.00199        -0.78478
C         28.00553         3.35862        -1.37452
C         29.45990         1.50863        -0.56520
C         29.25525         4.15813        -1.63961
C         27.82435         6.33113        -1.64122
C         27.79710         7.83302        -1.61139
C         29.11519         5.62452        -1.97474
C         29.01286         8.58936        -2.10065
C         28.06321        10.73194        -0.99241
C         28.11027        12.10672        -0.73790
C         29.06028        10.08614        -1.87526
C         29.30758        12.87858        -1.06633
C         28.20872        14.93331        -0.27372
C         28.17827        16.44029        -0.31671
C         29.37277        14.22263        -0.83236
C         29.29859        17.13615        -1.00627
C         28.05642        19.30181        -0.42821
C         29.23704        18.66875        -1.02411
C         30.58015         2.35047        -0.59910
C         30.50497         3.68008        -1.02874
C         31.52921         4.65132        -0.74569
C         30.44621         6.34012        -2.24148
C         30.30304         7.85987        -2.38737
C         31.47059         5.92790        -1.20842
C         31.56611         8.63717        -2.39448
C         30.38660        10.79717        -2.04978
C         30.60412        12.14921        -1.39232
C         31.59908         9.97450        -2.26087
C         31.49476        13.03632        -2.23753
C         30.71095        14.95394        -0.89045
C         30.60986        16.46793        -1.06444
C         31.56730        14.34495        -1.97915
C         31.72575        17.22994        -1.26787
C         30.52556        19.36470        -1.09103
C         31.68125        18.67072        -1.26994
O         15.18843        16.82111         3.19196
O         27.04499        10.11428         1.13046
O         28.59891        15.74775         0.91263
O         16.81170         8.45161         0.00237
O         16.43319        10.10271         3.12164
O          3.32716        15.88834         0.07813
O         26.56319         8.38818        -2.18179
O         20.53297        10.03687         3.24858
O          9.25813        14.28571         1.46918
O         17.73253        12.40690         3.26674
O         22.33242         4.94195        -0.54461
O          8.88863         6.98677        -0.95326
O         23.36916        14.33649        -0.79239
O         24.41120         3.26340         1.64950
O          9.52502         5.00425         2.22126
O         14.21717         6.02276        -0.45514
O         28.10326         5.82843        -2.99715
O         29.38895        10.82746        -3.09995
O         28.91153        17.83840        -2.21382
O         24.58455         5.56241         2.07538
O         23.44265        16.86127        -0.87759
O          7.08015         9.41630         1.38292
O          3.36265        11.48117         0.40149
O         12.03456        18.13056         2.27600
O         29.37830         8.21702        -3.46284
O         22.11673        14.69605         2.77169
O         28.63718         3.34782        -2.69348
O         18.48295        15.80197         3.48620
O         12.72051        13.66178        -0.77462
O         20.99837         7.23336        -0.21980
O         31.28156        11.89885        -0.13449
H         31.47423        12.78401         0.26809
O         23.07958         9.96977         3.21723
H         22.38737         9.69105         3.85874
O         26.05865         4.09195        -2.60195
H         26.76432         4.40163        -3.22282
O         24.16027         7.80420         2.85913
H         24.85594         7.11875         2.98987
O          6.73759        10.41935        -2.11098
H          6.08192        10.83478        -2.70996
O          5.68765        16.58205         1.28817
H          4.74137        16.29218         1.27985
O         30.92286         5.85948        -3.51895
H         30.24606         6.12044        -4.18222
O         10.15760        13.02153        -1.84288
H         10.25436        12.14446        -2.26909
O          3.16923         6.37268         1.12333
H          2.37507         6.94822         1.16137
O         31.35462        14.68994         0.39770
H         30.73234        15.01743         1.08724
H          0.52967         1.38568        -1.50254
H          0.47240         3.84943        -1.58237
H          2.62361         0.18358        -0.87658
H          0.62386         5.74014        -2.03628
H          0.59471         8.17458        -2.09043
H          0.63742        10.11942        -2.24799
H          0.69656        12.53542        -2.43928
H          0.81413        14.48867        -2.70119
H          0.99426        16.90144        -3.05910
H          2.34138        19.00262        -3.04060
H          4.99187         0.22905        -0.30156
H          4.43243        20.17584        -2.43475
H          7.40452         0.24475         0.16135
H          6.61447        20.23507        -1.32516
H          9.83543         0.25822         0.61388
H          8.86507        20.28522        -0.41569
H         12.29073         0.24380         0.88899
H         11.17572        20.27687        -0.16927
H         14.72751         0.23553         1.03524
H         13.82891        20.41168         0.56241
H         17.18685         0.20535         0.94262
H         16.06085        20.35381         1.26129
H         19.58516         0.17934         0.55326
H         18.46181        20.34415         1.47915
H         21.93320         0.13470        -0.06261
H         20.89091        20.33584         1.25836
H         24.52886         0.05347        -0.36528
H         23.31242        20.32423         0.93420
H         27.09652         0.16985        -0.32042
H         25.75035        20.35365         0.43849
H         29.57829         0.47228        -0.21802
H         28.07453        20.38850        -0.25724
H         31.54205         1.96908        -0.22575
H         32.36061         4.34684        -0.09190
H         32.26452         6.63875        -0.93794
H         32.50382         8.07881        -2.52903
H         32.56912        10.49333        -2.23579
H         32.10344        12.58471        -3.03500
H         32.22623        14.99993        -2.56789
H         32.71209        16.74862        -1.33457
H         30.54315        20.45592        -0.95373
H         32.63578        19.21169        -1.33707
