         349
 CSIRO Nanostructure Databank - Neutral Graphene Oxide Data Set
C          1.22884         1.94350         0.30990
C          1.23131         3.37167         0.44527
C          2.36346         1.22828         0.06993
C          2.37533         4.12095         0.28773
C          1.24011         6.30633         0.69499
C          1.27112         7.68943         0.84587
C          2.39304         5.59002         0.31692
C          2.44381         8.42245         0.62691
C          1.25108        10.67329         1.17751
C          1.18493        12.01010         1.03165
C          2.48370         9.88257         0.91100
C          2.31169        12.82519         0.50773
C          1.24185        15.06105         0.93971
C          1.24913        16.49638         0.93081
C          2.34376        14.31164         0.62214
C          2.35898        17.21976         0.57052
C          2.41171        18.67317         0.62473
C          3.67360         1.88624         0.08637
C          3.65912         3.40226         0.16333
C          4.85432         1.18986        -0.57620
C          4.81721         4.11849        -0.44029
C          3.57699         6.32679         0.04965
C          3.61999         7.74193         0.18974
C          4.77863         5.63399        -0.45917
C          4.84712         8.46103        -0.12104
C          3.69255        10.63106         0.47789
C          3.59049        12.10635         0.22354
C          4.77376         9.96029        -0.34273
C          4.90023        12.82883         0.32217
C          3.56262        14.99995         0.11745
C          3.55213        16.50789         0.06662
C          4.90069        14.32731         0.26596
C          4.85235        17.26334        -0.01410
C          3.58613        19.34012         0.61094
C          4.88597        18.58566         0.74157
C          6.15070         1.97380        -0.50487
C          6.11561         3.41745        -0.48368
C          7.35164         1.30502        -0.60817
C          7.27665         4.17047        -0.61482
C          6.06926         6.34513        -0.47196
C          6.04591         7.79820        -0.39067
C          7.24147         5.61130        -0.58189
C          7.27463         8.55878        -0.57788
C          6.09413        10.70382        -0.19869
C          6.13860        12.08319         0.01017
C          7.28871         9.94731        -0.44642
C          7.37603        12.85002         0.02080
C          6.18589        15.03304        -0.01864
C          6.17437        16.52129        -0.14465
C          7.36558        14.32608         0.07849
C          7.39523        17.28091         0.14387
C          6.11119        19.37736         0.43234
C          7.35475        18.73094         0.26466
C          8.60908         1.99904        -0.69019
C          8.56603         3.46740        -0.81186
C          9.82796         1.34667        -0.63570
C          9.87705         4.21687        -0.54452
C          8.54543         6.32057        -0.65110
C          8.55220         7.80966        -0.71150
C          9.67681         5.59640         0.06936
C          9.83128         8.49066        -0.40570
C          8.54670        10.71590        -0.55131
C          8.56371        12.14999        -0.17494
C          9.84340         9.95024        -0.58020
C          9.84785        12.81316        -0.12759
C          8.69140        15.08666        -0.08461
C          8.63803        16.56670         0.39908
C          9.90858        14.21720         0.22608
C          9.90366        17.46468         0.38881
C          8.53547        19.50688         0.20711
C          9.83603        18.89543        -0.21618
C         11.08056         2.03852        -0.43806
C         11.06436         3.43969        -0.19946
C         12.29727         1.31663        -0.39875
C         12.24083         4.12474         0.32861
C         10.98178         6.38458         0.21614
C         11.00318         7.82741        -0.13016
C         12.26632         5.63578         0.37739
C         12.30409         8.49434        -0.21415
C         11.06258        10.61573        -0.01202
C         11.02662        12.08754        -0.21540
C         12.33402         9.90578        -0.40619
C         12.27906        12.79048        -0.49051
C         11.17522        14.69022         0.55809
C         11.20735        16.80496         0.38090
C         12.39175        14.15704         0.02279
C         12.31982        17.02292        -0.36584
C         11.10683        19.65097         0.17524
C         12.34126        19.18663        -0.23937
C         13.55718         1.93605        -0.16607
C         13.57191         3.37469         0.25086
C         14.77145         1.27799        -0.23017
C         14.78853         4.14754        -0.03519
C         13.62050         6.34639         0.25947
C         13.51887         7.78178        -0.23603
C         14.63861         5.55368        -0.57041
C         14.73173         8.45204        -0.52480
C         13.52112        10.57595        -0.69545
C         13.50030        12.04410        -0.89644
C         14.76167         9.86526        -0.73266
C         14.78811        12.80917        -0.93233
C         13.58030        14.88755        -0.12024
C         13.58970        16.34357        -0.13121
C         14.81995        14.20735        -0.45424
C         14.76047        17.07834        -0.05528
C         13.67056        19.42355         0.23656
C         14.78541        18.53874         0.12963
C         15.96697         1.99465         0.33821
C         16.00071         3.43913        -0.16181
C         17.29180         1.29527         0.25380
C         17.19614         4.07495        -0.47985
C         15.95324         6.30003        -0.60647
C         15.97294         7.69999        -0.61573
C         17.25130         5.57708        -0.37541
C         17.19867         8.42515        -0.78747
C         16.00916        10.55429        -0.83804
C         16.07118        12.02550        -0.95929
C         17.22986         9.84076        -0.83764
C         17.30978        12.73505        -0.60512
C         16.02891        14.85896        -0.30341
C         16.03644        16.28626         0.23000
C         17.29008        14.13653        -0.40069
C         17.27918        17.03132        -0.25026
C         16.05242        19.10987         0.43865
C         17.27805        18.42446         0.34246
C         18.46175         1.94851        -0.02055
C         18.46122         3.27876        -0.74398
C         19.72423         1.35780         0.30275
C         19.72663         4.09255        -0.52534
C         18.40164         6.20183        -1.15060
C         18.39572         7.70173        -1.25040
C         19.70885         5.46794        -1.06511
C         19.68814         8.46256        -1.45029
C         18.49730        10.56652        -0.85287
C         18.52491        11.98018        -0.61120
C         19.72492         9.87031        -0.98365
C         19.76786        12.65235        -0.44412
C         18.52614        14.81941        -0.16584
C         18.54213        16.23877         0.03599
C         19.77337        14.08256        -0.16693
C         19.70785        16.89327         0.39372
C         18.48017        19.03157         0.69226
C         19.71834        18.31985         0.65740
C         20.90650         2.09765         0.31492
C         20.90061         3.51533        -0.05935
C         22.12169         1.49752         0.73403
C         22.13940         4.25685         0.02951
C         20.91646         6.33545        -0.87742
C         20.98745         7.66685        -1.67310
C         22.12533         5.71474        -0.25485
C         22.23089         8.40512        -1.25603
C         20.95123        10.52249        -0.74349
C         20.98058        11.91574        -0.50083
C         22.25305         9.75225        -0.65071
C         22.26069        12.60801        -0.40094
C         20.96500        14.72237         0.14468
C         20.95820        16.11400         0.71399
C         22.28657        14.00174         0.18567
C         22.21074        16.90655         0.41497
C         20.92778        18.97445         0.89087
C         22.17957        18.31103         0.66003
C         23.32527         2.21106         0.76102
C         23.34028         3.61423         0.37804
C         24.52723         1.59463         1.19722
C         24.60940         4.28900         0.35984
C         23.43312         6.43902        -0.35750
C         23.50599         7.62698        -1.33487
C         24.68549         5.70782        -0.04861
C         24.75226         8.44384        -1.02330
C         23.42631        10.57760        -1.31814
C         23.43319        11.99927        -0.77230
C         24.71320         9.85032        -1.06002
C         24.69344        12.73363        -0.85925
C         23.37966        14.87180        -0.44776
C         23.40814        16.29409        -0.00861
C         24.64408        14.21596        -0.91542
C         24.60048        17.02643        -0.09323
C         23.37675        19.04141         0.60954
C         24.59651        18.41011         0.27644
C         25.74316         2.28606         1.21593
C         25.79102         3.65048         0.73459
C         26.92731         1.69127         1.73764
C         27.07038         4.33937         0.67629
C         25.97981         6.22955        -0.64243
C         25.92698         7.74247        -0.71798
C         27.17517         5.66493         0.10765
C         27.19539         8.46477        -0.75225
C         25.87636        10.62271        -0.47868
C         25.88780        12.07927        -0.91736
C         27.19066         9.91703        -0.68541
C         27.14452        12.79554        -1.39158
C         25.92748        14.95168        -0.82832
C         25.86213        16.46884        -0.72631
C         27.13054        14.30539        -0.98513
C         27.10131        17.07971        -0.10211
C         25.80869        19.14238         0.33647
C         27.06325        18.48426         0.27421
C         28.13182         2.38875         1.75923
C         28.20871         3.70353         1.17852
C         29.29765         1.83148         2.40205
C         29.56790         4.31844         0.99114
C         28.38369         6.36882         0.17796
C         28.48398         7.73757        -0.36624
C         29.54366         5.80864         0.77999
C         29.65854         8.56213        -0.04704
C         28.39177        10.60875        -0.68585
C         28.40523        12.01038        -1.02529
C         29.65861         9.92958        -0.42615
C         29.64596        12.51875        -1.34395
C         28.34941        15.09477        -0.80091
C         28.29184        16.38982        -0.15096
C         29.61194        14.67538        -1.20089
C         29.55554        17.00103         0.32158
C         28.23695        19.19540         0.53516
C         29.51413        18.51815         0.70174
C         30.45209         2.56377         2.56204
C         30.58946         3.86266         1.99765
C         31.71411         4.66562         2.21159
C         30.72916         6.55935         0.97483
C         30.79643         7.95478         0.53701
C         31.81046         5.95280         1.66810
C         31.97786         8.72596         0.63887
C         30.88464        10.66005        -0.37644
C         30.90073        12.02710        -0.86339
C         32.02965        10.02495         0.15670
C         32.01249        12.89060        -0.78519
C         30.87128        15.14722        -0.71386
C         30.86901        16.45752        -0.07992
C         31.99892        14.30145        -0.73264
C         32.01233        17.20283         0.13946
C         30.77708        19.25328         0.64231
C         31.95983        18.59018         0.48177
O          9.30160        10.46482        -1.81484
O         28.10014         7.86620        -1.78032
O         12.32810        18.13751        -1.22271
O         15.47724        12.58113        -2.20188
O         29.49789        17.44064         1.70489
O         23.63637        14.73427        -1.87898
O         11.31641        15.81294         1.37676
O          9.23230        17.12022         1.62833
O          3.59603        10.22715         1.86045
O          3.33242        15.70154        -1.13504
O         11.55957         6.15049         1.56390
O         12.87494         3.56753         1.53688
O          4.49620         4.82912        -1.67655
O          5.46293        17.16157        -1.30220
O         18.94450         5.56457        -2.33613
O         29.68117        13.65846        -2.16552
O          2.72225        12.44441        -0.88341
O         21.15247         6.50687         0.55374
O         18.78103         8.23767        -2.57611
O          4.98152        13.62123         1.55956
O         24.07931         6.63694         0.93008
O         12.61596        12.57379        -1.94391
O          4.02090         2.58380         1.32426
O          8.76567         6.96035        -1.92965
O          9.37743         4.03588        -1.89661
O         27.06375        12.80115        -2.84750
H         27.89669        13.21431        -3.17186
O         17.15929        17.15953        -1.68900
H         17.94189        17.64599        -2.02116
O          8.83170        15.29984        -1.52958
H          8.81429        14.42732        -1.97875
O          4.36254        10.12882        -1.73248
H          5.04460         9.72079        -2.30686
O          9.14794         5.37124         1.40003
H          9.91544         5.39298         2.02230
O         15.74459         2.10933         1.78837
H         14.83680         2.45350         1.93892
O         16.15866        16.18918         1.67926
H         15.32983        15.80176         2.03055
O         14.08083         5.46568        -1.91644
H         14.76312         5.08796        -2.51040
O         30.05900         3.76824        -0.30887
H         30.94304         4.16441        -0.46734
O          9.76255        18.72922        -1.65344
H         10.66796        18.49473        -1.96965
O         21.06588         7.31849        -3.07304
H         20.13854         7.35675        -3.42269
O         22.67551        13.85970         1.58798
H         22.14522        14.50404         2.11897
O         14.17352         6.41607         1.59499
H         13.41723         6.55752         2.20896
O         17.62071         5.85689         1.02646
H         16.84161         5.63996         1.58456
O         23.10183        10.62055        -2.72475
H         23.75412        11.19864        -3.17376
O         20.95722        15.93393         2.20348
H         20.89560        16.83228         2.59633
O         18.42752         2.91962        -2.16771
H         18.54928         3.76055        -2.67252
O         26.08033         5.73057        -2.00446
H         26.82596         6.21286        -2.42960
O         25.66130        10.63266         0.98164
H         24.69255        10.55039         1.14512
O         22.64555         9.67091         0.75947
H         22.25133         8.85929         1.14841
O          4.97837        18.15651         2.15475
H          5.08554        18.96120         2.70477
O         10.93627        10.40182         1.44279
H         11.75042        10.73449         1.87560
O         23.67091         7.04831        -2.64834
H         22.88493         7.27310        -3.20070
O         25.82019        16.94315        -2.12030
H         25.06540        16.47761        -2.54671
O          4.53611         0.95943        -1.96210
H          4.58191         1.81436        -2.43908
H          0.25635         1.43082         0.32112
H          0.25759         3.86331         0.57658
H          2.31133         0.16128        -0.19000
H          0.30313         5.77592         0.90838
H          0.35528         8.20264         1.16794
H          0.36297        10.14102         1.54943
H          0.24881        12.52785         1.28871
H          0.31175        14.56224         1.24705
H          0.34407        17.02318         1.26584
H          1.45781        19.22122         0.66295
H          4.99746         0.18149        -0.11088
H          3.60682        20.44014         0.63127
H          7.35907         0.20476        -0.63042
H          6.08435        20.47293         0.52647
H          9.84464         0.24629        -0.61905
H          8.45025        20.60030         0.29206
H         12.27005         0.22682        -0.54673
H         11.05756        20.37278         1.00341
H         14.84069         0.24184        -0.59139
H         13.88045        20.40720         0.68713
H         17.34130         0.29533         0.71475
H         16.07906        20.16549         0.75471
H         19.74141         0.31857         0.66615
H         18.48368        20.07981         1.02943
H         22.11290         0.44235         1.04581
H         20.93058        20.05515         1.09329
H         24.49421         0.54898         1.53806
H         23.36922        20.11745         0.83707
H         26.87628         0.67390         2.15353
H         25.77610        20.21285         0.58821
H         29.21894         0.82629         2.84102
H         28.19741        20.29118         0.62728
H         31.28696         2.15122         3.14871
H         32.52900         4.29192         2.84953
H         32.72349         6.53006         1.86422
H         32.88983         8.28765         1.06543
H         32.98050        10.57266         0.20981
H         32.98420        12.43281        -0.54262
H         32.95953        14.75769        -0.44542
H         32.99364        16.77671        -0.11316
H         30.75377        20.35026         0.71582
H         32.90422        19.15278         0.49325
