         640
 CSIRO Nanostructure Databank - Neutral Graphene Oxide Data Set
C         23.27379        27.26243        -0.80677
C         23.27193        28.64588        -0.91183
C         23.12689        31.61222        -0.70539
C         23.07326        32.96018        -0.53119
C         23.13031        35.87481        -0.86475
C         23.12982        37.25385        -0.94629
C         23.01821        40.20120        -0.83467
C         23.06790        41.46647        -1.28982
C         23.29551        44.25515        -2.35624
C         23.37693        45.52159        -2.84109
C         25.61263        24.50094         0.08634
C         24.46942        25.15597        -0.29652
C         25.62550        27.32230        -0.11758
C         24.44417        26.57974        -0.40746
C         25.60724        28.74506        -0.20910
C         24.41820        29.40077        -0.59910
C         25.49062        31.56367         0.06609
C         24.44996        30.90134        -0.81689
C         25.43000        33.05938         0.24015
C         24.24402        33.75652        -0.27533
C         25.47924        35.89469        -0.09606
C         24.27214        35.16081        -0.40464
C         25.49447        37.30607        -0.28297
C         24.28634        37.99865        -0.63981
C         25.42718        40.14919        -0.43673
C         24.26261        39.44653        -0.62250
C         25.34376        41.65485        -0.35199
C         24.42105        42.11916        -1.51109
C         25.55347        44.38156        -1.41069
C         24.41511        43.61417        -1.71770
C         25.66944        45.71352        -1.85566
C         24.68842        46.24113        -2.87027
C         25.65987        48.47832        -2.45615
C         24.57827        47.73668        -2.81996
C         28.06988        23.11296         0.90963
C         28.01798        24.53213         0.79530
C         26.81705        25.21271         0.37573
C         28.01820        27.36959         0.51642
C         26.82145        26.62958         0.26120
C         28.01384        28.79761         0.43798
C         26.81760        29.48918         0.10712
C         27.93887        31.63768         0.59755
C         26.79835        30.89502         0.19317
C         27.86187        33.08487         0.71555
C         26.68951        33.78990         0.47784
C         27.83028        35.99670         0.61845
C         26.66539        35.23674         0.35867
C         27.87699        37.38666         0.31186
C         26.71483        38.02658        -0.13411
C         27.93214        40.24014        -0.11125
C         26.74591        39.45649        -0.60452
C         27.87199        41.68897        -0.22349
C         26.67491        42.35045        -0.40776
C         27.92467        44.54585        -0.55971
C         26.59269        43.85707        -0.43930
C         27.97963        45.87837        -0.96073
C         26.82467        46.51130        -1.56624
C         28.15213        48.64528        -1.95679
C         26.85508        47.86836        -1.94158
C         28.03468        50.11525        -1.64432
C         30.44947        23.12862         1.46171
C         29.26256        22.44417         1.18879
C         30.39199        24.61518         1.68451
C         29.19187        25.28314         1.05878
C         30.43111        27.43317         1.06663
C         29.20517        26.68561         0.89921
C         30.42557        28.83142         1.00050
C         29.18800        29.54265         0.77027
C         30.36187        31.66751         1.41531
C         29.14932        30.94893         0.85580
C         30.37283        33.14540         1.14592
C         29.06156        33.81858         1.17629
C         30.31865        36.09253         1.39114
C         29.00435        35.33149         1.21342
C         30.28474        37.52076         0.87802
C         29.13115        38.13943         0.47106
C         30.33901        40.34483         0.32950
C         29.09892        39.59049         0.24109
C         30.33527        41.75201         0.16344
C         29.09746        42.45420        -0.03532
C         30.27755        44.62656         0.36506
C         29.08674        43.84628        -0.11891
C         30.31309        46.02632        -0.18304
C         29.21688        46.63508        -0.80219
C         30.42203        48.79670        -0.88574
C         29.26271        48.01391        -1.15336
C         30.41272        50.21672        -1.06843
C         29.13390        50.84126        -1.31943
C         32.95743        20.40958         2.12038
C         31.74272        21.06169         1.91744
C         32.93172        23.17818         1.62603
C         31.70143        22.44710         1.67172
C         32.91292        24.60543         1.43259
C         31.68882        25.31949         1.38184
C         32.90485        27.43399         1.07710
C         31.67793        26.71467         1.19614
C         32.89853        28.85870         0.99075
C         31.66534        29.57178         1.04154
C         32.87046        31.71666         0.98144
C         31.66290        30.98363         1.07110
C         32.86725        33.16592         0.96099
C         31.57693        33.87762         1.04471
C         32.80021        36.04272         0.88799
C         31.54380        35.28862         0.94395
C         32.71800        37.46129         0.42979
C         31.58824        38.28441         1.04737
C         32.78874        40.32843         0.20508
C         31.56340        39.66345         0.44899
C         32.80522        41.74976         0.12295
C         31.57353        42.46522         0.16190
C         32.81100        44.56293         0.16755
C         31.58981        43.88706         0.18218
C         32.84072        46.02873         0.29957
C         31.51387        46.79870         0.08511
C         32.82554        48.86999        -0.29977
C         31.59625        48.17804        -0.36744
C         32.83859        50.27325        -0.56536
C         31.61882        50.96018        -0.87589
C         32.86448        53.06876        -0.90180
C         31.67639        52.37010        -1.05079
C         35.43897        18.95146         1.58456
C         35.43048        20.28059         2.31285
C         34.17630        21.08198         2.01155
C         35.40268        23.21799         1.63997
C         34.17840        22.48774         1.75614
C         35.38752        24.60468         1.33531
C         34.14045        25.31191         1.27725
C         35.36316        27.43845         0.90293
C         34.13895        26.72316         1.08585
C         35.35457        28.85782         0.80898
C         34.12320        29.58073         0.90311
C         35.35640        31.71524         0.82848
C         34.11326        31.00690         0.88572
C         35.34104        33.15752         0.76149
C         34.08115        33.84888         0.82291
C         35.30730        36.00157         0.20124
C         34.12776        35.33314         0.80343
C         35.19274        37.34954        -0.49484
C         33.93858        38.13853        -0.10520
C         35.24518        40.27436         0.07519
C         34.02611        39.60827         0.07867
C         35.28307        41.70893         0.05569
C         34.05078        42.43875         0.05451
C         35.29401        44.57175         0.00854
C         34.05391        43.86204         0.05773
C         35.29719        46.00569        -0.03447
C         34.08488        46.74641         0.03401
C         35.30081        48.86594        -0.21095
C         34.06175        48.15360        -0.10296
C         35.29529        50.26697        -0.36954
C         34.07563        50.98541        -0.51303
C         35.32692        53.14278        -0.41142
C         34.08335        52.41168        -0.63095
C         35.32321        54.55558        -0.23394
C         37.88150        18.87248         1.29295
C         36.56994        18.28523         1.24081
C         37.97584        20.30909         1.64086
C         36.74345        21.04974         2.10570
C         37.94602        23.21470         1.37137
C         36.69324        22.53945         1.89391
C         37.79639        24.54298         0.71986
C         36.58299        25.32029         1.00608
C         37.81954        27.42864         0.51100
C         36.59067        26.71178         0.78801
C         37.81771        28.84749         0.51953
C         36.58378        29.56985         0.67730
C         37.85621        31.68743         0.84567
C         36.57073        30.98729         0.74947
C         37.82687        33.23384         0.75374
C         36.53309        33.89583         0.59709
C         37.77361        35.94511        -0.04457
C         36.53410        35.29367         0.22294
C         37.72770        37.35880        -0.60745
C         36.47566        38.09551        -0.26139
C         37.76138        40.26722        -0.15134
C         36.52811        39.49528         0.29463
C         37.76521        41.68067        -0.15601
C         36.52256        42.41478        -0.01967
C         37.76460        44.56519        -0.12174
C         36.52312        43.84234        -0.04901
C         37.76559        45.98180        -0.10453
C         36.53444        46.71682        -0.09632
C         37.78147        48.84847        -0.07050
C         36.53525        48.13282        -0.14912
C         37.79381        50.26106        -0.13948
C         36.58599        50.98459        -0.66196
C         37.76730        53.16042        -0.09395
C         36.54989        52.45615        -0.32800
C         37.74297        54.58195         0.08132
C         36.48994        55.24760        -0.00166
C         40.21582        16.04990         0.58305
C         39.05597        16.73943         0.79752
C         40.30248        18.87817         0.80092
C         39.05061        18.17049         0.95816
C         40.33381        20.29665         0.81637
C         39.15373        21.04808         1.12344
C         40.33977        23.14563         0.62513
C         39.15315        22.43413         1.02143
C         40.33986        24.54763         0.44326
C         39.05938        25.26232         0.31790
C         40.26287        27.41276         0.11421
C         39.05050        26.73330         0.30863
C         40.26839        28.85071         0.10008
C         39.05353        29.55671         0.34582
C         40.29992        31.66914         0.30489
C         39.09318        30.97356         0.45908
C         40.31410        33.14697         0.45010
C         39.05406        33.90834         0.34213
C         40.26728        35.98555        -0.30811
C         39.02270        35.25823        -0.03473
C         40.25089        37.41009        -0.52771
C         39.00702        38.13854        -0.44443
C         40.16436        40.30335        -0.78350
C         38.95818        39.53623        -0.41895
C         40.23479        41.74628        -0.51269
C         39.00082        42.43155        -0.29116
C         40.24228        44.58131        -0.32713
C         39.00510        43.85127        -0.22736
C         40.24507        45.98574        -0.20532
C         39.00526        46.70290        -0.06307
C         40.26778        48.82295         0.38224
C         38.99038        48.10613         0.06027
C         40.21713        50.29669         0.08991
C         39.02318        50.98739        -0.03196
C         40.19625        53.16318         0.26536
C         39.01091        52.45375        -0.01812
C         40.17729        54.57854         0.48463
C         38.95901        55.29903         0.36008
C         40.15218        57.38128         0.82030
C         38.98597        56.71928         0.53096
C         42.67747        16.02263         0.26529
C         41.47396        16.73016         0.46782
C         42.74670        18.84057         0.37674
C         41.50525        18.15171         0.54677
C         42.76655        20.26892         0.37242
C         41.55604        20.99503         0.55423
C         42.78235        23.11256         0.24151
C         41.56220        22.41638         0.47588
C         42.77595        24.55422         0.09862
C         41.54243        25.26294         0.20742
C         42.71134        27.36401        -0.29439
C         41.51633        26.68250        -0.00532
C         42.63850        28.80778        -0.73266
C         41.46986        29.56527        -0.14281
C         42.73616        31.68653        -0.34276
C         41.49722        30.96899        -0.04588
C         42.75548        33.08902        -0.34313
C         41.57782        33.87440         0.07542
C         42.72517        35.99262        -0.51518
C         41.49576        35.30724        -0.29385
C         42.72436        37.40348        -0.69520
C         41.47961        38.09246        -0.70562
C         42.71732        40.30777        -0.86424
C         41.46720        39.54476        -0.96326
C         42.72035        41.69863        -0.76407
C         41.46976        42.42249        -0.57883
C         42.71395        44.54750        -0.55736
C         41.49555        43.85925        -0.48678
C         42.73562        46.03466        -0.80341
C         41.47794        46.74822        -0.33550
C         42.72597        48.89651        -0.28006
C         41.47881        48.10908        -0.17174
C         42.72424        50.28191         0.22332
C         41.48879        51.05818        -0.11857
C         42.58795        53.09148         0.84919
C         41.44318        52.46010         0.42042
C         42.60933        54.52816         1.01816
C         41.39316        55.25581         0.81732
C         42.57916        57.33845         1.32690
C         41.38241        56.67150         0.98448
C         43.88626        16.69266         0.14428
C         45.20620        18.82312         0.03931
C         43.95341        18.10509         0.18925
C         45.22844        20.23444         0.05291
C         43.99750        20.97606         0.20596
C         45.28004        23.16430         0.20540
C         43.99149        22.38422         0.17039
C         45.17301        24.44505        -0.61921
C         43.95421        25.25588        -0.24128
C         45.18074        27.37553        -0.71496
C         43.93890        26.65602        -0.41922
C         45.16398        28.78206        -0.81896
C         43.95610        29.54213        -0.66715
C         45.18165        31.70970        -1.02763
C         43.93972        30.93745        -0.61620
C         45.19121        33.15162        -0.60610
C         43.96845        33.83905        -0.53169
C         45.19548        35.97328        -0.59820
C         43.96370        35.26940        -0.51768
C         45.18050        37.38984        -0.83616
C         43.97477        38.08933        -0.90915
C         45.24585        40.33303        -1.19885
C         43.95036        39.55437        -1.15075
C         45.23055        41.75634        -0.80340
C         43.97782        42.42981        -0.71134
C         45.20032        44.54751        -0.38521
C         43.96442        43.84488        -0.55247
C         45.20491        45.98478        -0.19455
C         44.00628        46.68577        -0.30252
C         45.20661        48.83010         0.30981
C         44.03389        48.14702        -0.25418
C         45.11347        50.14855         0.73228
C         43.86413        50.88621         0.67867
C         45.07683        53.07478         0.96290
C         43.79800        52.28635         1.27643
C         45.09106        54.47485         1.61729
C         43.80056        55.22907         1.32955
C         43.75916        56.62507         1.49571
C         47.62691        18.78528        -0.29952
C         46.43606        18.12125        -0.13922
C         47.68804        20.20895        -0.30829
C         46.46989        20.94368        -0.13916
C         47.69681        23.06017        -0.41770
C         46.49485        22.35683        -0.17961
C         47.69162        24.49961        -0.52555
C         46.45547        25.23674        -0.58407
C         47.71209        27.33678        -1.02837
C         46.41398        26.61516        -0.75338
C         47.63404        28.76145        -0.46779
C         46.46249        29.51853        -1.12931
C         47.62325        31.60929        -0.39140
C         46.45450        30.97165        -0.71632
C         47.61615        33.07060        -0.11264
C         46.39967        33.84648        -0.42940
C         47.69733        35.96667        -0.39937
C         46.42797        35.26004        -0.44594
C         47.72319        37.37322        -0.60505
C         46.48853        38.06099        -1.02093
C         47.74984        40.27475        -0.70467
C         46.53436        39.57630        -1.14088
C         47.72182        41.69536        -0.55642
C         46.45340        42.42865        -0.60195
C         47.65710        44.57239        -0.21736
C         46.43638        43.84861        -0.38212
C         47.68085        45.96505        -0.00316
C         46.44683        46.68837         0.04321
C         47.65008        48.78787         0.61278
C         46.44895        48.09292         0.34665
C         47.63345        50.14816         1.01792
C         46.33622        50.81428         1.21642
C         47.60504        53.04151         1.24987
C         46.33451        52.32186         1.36883
C         47.52571        54.46539         1.03053
C         46.36222        55.16349         1.15709
C         50.18511        20.21783        -0.48049
C         48.92518        20.91151        -0.44378
C         50.17425        23.03889        -0.60623
C         48.93081        22.32932        -0.50866
C         50.15456        24.44034        -0.54257
C         48.93842        25.18262        -0.54034
C         50.14123        27.35234        -0.56390
C         48.96027        26.61772        -0.58752
C         50.17036        28.78712        -0.53369
C         48.94253        29.52125        -0.48538
C         50.13708        31.63582         0.01397
C         48.89102        30.89875        -0.29582
C         50.19359        33.09703        -0.12864
C         48.92475        33.82643        -0.01182
C         50.16508        35.95439        -0.32344
C         48.91896        35.27522        -0.25650
C         50.17105        37.38024        -0.40774
C         48.93678        38.08912        -0.55386
C         50.17507        40.23141        -0.35280
C         48.94506        39.53963        -0.56608
C         50.16705        41.65799        -0.24593
C         48.93130        42.37376        -0.34532
C         50.11421        44.52393         0.23184
C         48.96060        43.87283        -0.48935
C         50.14792        46.00431         0.24692
C         48.94573        46.67510         0.16905
C         50.15784        48.75992         0.88830
C         48.96020        48.18187         0.18283
C         50.07020        50.09878         1.56574
C         48.81226        50.87431         1.26074
C         50.07539        52.97689         1.47942
C         48.81491        52.30714         1.35880
C         51.37444        20.87865        -0.58340
C         52.65138        22.98388        -0.87917
C         51.43928        22.31344        -0.68306
C         52.62722        24.46713        -1.17167
C         51.44104        25.16111        -0.53256
C         52.61920        27.36509        -1.16735
C         51.44281        26.64952        -0.52796
C         52.64977        28.81735        -0.76398
C         51.43521        29.46237        -0.49954
C         52.68858        31.65625        -0.36606
C         51.46383        30.88231        -0.11584
C         52.66044        33.06570        -0.32117
C         51.40044        33.78176        -0.22718
C         52.63200        35.93432        -0.31200
C         51.40400        35.23118        -0.28273
C         52.63825        37.36838        -0.30138
C         51.40846        38.08322        -0.34644
C         52.63625        40.21363        -0.14612
C         51.40689        39.51565        -0.29039
C         52.61915        41.63054         0.05585
C         51.39643        42.33149        -0.00872
C         52.68245        44.52840         0.16175
C         51.38532        43.77214         0.32533
C         52.60963        45.96798         0.62487
C         51.40054        46.67053         0.54699
C         52.59401        48.75052         1.26433
C         51.35985        48.07572         0.90672
C         52.58539        50.16414         1.47551
C         51.35079        50.88677         1.46372
C         51.28069        52.29078         1.51493
C         55.09637        23.00277        -1.21333
C         53.93885        22.33720        -0.95818
C         55.14856        24.49027        -1.48451
C         53.95105        25.15182        -0.76786
C         55.13447        27.36134        -1.00096
C         53.92912        26.65009        -0.96821
C         55.12208        28.81964        -0.94520
C         53.89319        29.52010        -0.75978
C         55.12870        31.66799        -0.66511
C         53.89965        30.94921        -0.60635
C         55.12207        33.09338        -0.52977
C         53.88735        33.79605        -0.40749
C         55.11166        35.93575        -0.32171
C         53.88150        35.22317        -0.34442
C         55.11343        37.36979        -0.23351
C         53.87738        38.07787        -0.23976
C         55.10336        40.22405        -0.05497
C         53.87736        39.50633        -0.14640
C         55.06144        41.64379         0.16124
C         53.85625        42.31811         0.30403
C         55.11433        44.50103         0.75128
C         53.81225        43.74073         0.82963
C         55.07674        45.91062         0.96121
C         53.82965        46.62584         0.96634
C         55.06037        48.72684         1.45698
C         53.82497        48.03564         1.24264
C         55.01789        50.12832         1.69052
C         53.83033        50.82347         1.68425
C         57.65359        24.59619        -1.77879
C         56.46593        25.15488        -1.03392
C         57.58055        27.41058        -1.29555
C         56.38600        26.67176        -1.12511
C         57.58454        28.84115        -1.16618
C         56.34790        29.53908        -0.97302
C         57.59353        31.68221        -0.83196
C         56.35444        30.96374        -0.83528
C         57.59431        33.09980        -0.63610
C         56.35471        33.80939        -0.51408
C         57.58849        35.93999        -0.26944
C         56.34990        35.22724        -0.37579
C         57.58342        37.36052        -0.09585
C         56.34388        38.08066        -0.12558
C         57.58945        40.19355         0.12516
C         56.35032        39.51113        -0.04644
C         57.63625        41.66688         0.10338
C         56.31788        42.42187         0.13533
C         57.57243        44.50741         0.73826
C         56.32542        43.82630         0.58807
C         57.55159        45.90554         1.03067
C         56.31228        46.61487         1.12178
C         57.55908        48.68065         1.56015
C         56.31144        48.01792         1.38421
C         58.77019        25.33008        -1.96489
C         59.99213        27.47249        -1.73757
C         58.80160        26.73958        -1.63479
C         60.00702        28.84342        -1.50314
C         58.81545        29.55344        -1.22711
C         60.02984        31.72258        -0.95883
C         58.82320        30.98774        -1.01057
C         60.03285        33.08593        -0.72689
C         58.82665        33.80645        -0.56054
C         60.02592        35.95257        -0.12219
C         58.82253        35.23352        -0.31838
C         60.01852        37.31463         0.10752
C         58.81024        38.05129         0.11273
C         59.98549        40.21095         0.61476
C         58.80156        39.48755         0.28843
C         59.99528        41.58843         0.78413
C         58.84907        42.37280         0.54642
C         60.02409        44.53375         0.91109
C         58.81975        43.79589         0.70936
C         60.00870        45.89010         1.14213
C         58.78080        46.60420         1.22086
C         58.75440        47.99831         1.48562
O         46.21009        51.45731         2.55041
O         33.66033        35.92342         2.09244
O         57.04707        42.24462        -1.12762
O         32.08811        46.56058         1.43968
O         44.52118        40.03156        -2.42894
O         43.50238        48.74220        -1.52956
O         48.16136        33.42336         1.20231
O         25.03406        32.11086         1.32660
O         46.70510        38.72937        -2.31672
O         37.59466        23.27466         2.78998
O         32.81512        37.72040        -0.99930
O         40.65612        39.94336        -2.12394
O         41.22687        33.63914         1.49775
O         37.73597        20.62713         3.08485
O         50.85074        31.13607         1.19613
O         37.98770        32.51326         2.03474
O         38.17956        24.60542        -0.69156
O         28.71520        34.56360         2.43176
O         50.56115        43.99765         1.52288
O         51.71673        25.91664         0.70927
O         49.94499        49.78466         3.01827
H         49.81088        50.63722         3.48594
O         41.58615        51.23618        -1.58415
H         42.46161        51.63645        -1.77584
O         45.47637        23.58721         1.58764
H         45.56143        22.78473         2.14348
O         28.59293        48.56579        -3.37779
H         29.39585        49.12474        -3.45732
O         52.93291        44.54923        -1.26620
H         53.76966        45.03440        -1.42603
O         30.53582        36.22175         2.83530
H         30.03058        35.47525         3.24975
O         25.28141        45.94338        -4.20999
H         26.13211        46.43345        -4.25128
O         36.65419        39.36832         1.76659
H         36.54828        40.26424         2.15193
O         49.25024        44.12417        -1.91215
H         48.54450        43.69591        -2.44203
O         55.08810        24.71524        -2.90640
H         54.16460        24.52442        -3.20126
O         49.11204        48.59862        -1.23498
H         48.48158        48.06540        -1.76538
O         30.22925        31.53156         2.88171
H         30.96414        32.03565         3.29173
O         26.91902        39.39514        -2.07708
H         26.40959        40.14902        -2.46525
O         24.70157        41.98115         0.90353
H         24.93904        42.91879         1.12093
O         45.09706        53.22866        -0.47520
H         45.82498        53.84602        -0.70499
O         30.08090        44.75330         1.82233
H         30.79212        45.36638         2.13673
O         44.97870        24.02709        -2.00372
H         44.94614        24.83308        -2.56069
O         42.33826        28.73646        -2.18181
H         41.48608        28.25977        -2.27983
O         30.20426        24.77277         3.15076
H         29.36153        24.32643         3.38162
O         35.07039        37.07187        -1.94628
H         34.10526        37.09631        -2.15835
O         35.33958        19.94913         3.72723
H         36.26921        19.87333         4.05007
O         46.59477        29.56782        -2.58058
H         46.76151        28.64336        -2.89971
O         37.71893        37.03506        -2.05469
H         36.77052        36.94926        -2.33294
O         45.18510        54.33138         3.05394
H         44.45665        53.72009         3.32560
O         56.69477        24.81487         0.36128
H         57.49399        25.29596         0.66048
O         52.32888        27.33534        -2.61439
H         53.14069        27.62146        -3.08460
O         47.85161        27.34663        -2.49747
H         48.76176        27.64925        -2.70861
O         24.93678        31.10478        -2.18711
H         24.33668        30.62184        -2.79338
O         40.43364        48.73522         1.86386
H         39.63347        49.13324         2.26956
O         25.02591        41.55149        -2.72161
H         24.55683        41.92267        -3.49894
O         45.08548        31.79553        -2.49367
H         45.43540        30.94273        -2.85640
O         31.86954        38.48982         2.45063
H         31.60929        37.66688         2.93387
O         47.29516        28.59721         0.93421
H         47.52673        29.42261         1.40988
O         42.77978        46.18673        -2.26657
H         42.95300        47.14711        -2.43460
O         52.44701        24.59630        -2.61709
H         51.64525        24.08953        -2.86625
O         53.46936        43.64915         2.23973
H         54.17231        43.14483         2.69848
O         43.66500        52.12563         2.71604
H         44.47287        51.63213         3.01633
O         54.15077        24.90848         0.63981
H         53.39981        25.33174         1.12180
O         26.09110        44.28111         0.89885
H         26.84114        44.19414         1.52761
O         36.72074        50.92259        -2.14182
H         35.97110        51.43217        -2.51795
H         22.36565        26.68939        -1.04176
H         22.35278        29.15047        -1.24080
H         22.19237        31.06241        -0.88655
H         22.09362        33.45755        -0.58515
H         22.21789        35.32680        -1.13346
H         22.21499        37.76953        -1.26752
H         22.04881        39.70972        -0.66740
H         22.13693        42.01747        -1.48554
H         22.34408        43.70982        -2.43929
H         22.50726        45.99202        -3.32296
H         25.59111        23.40616         0.16671
H         23.55392        24.58901        -0.51883
H         25.62094        49.57189        -2.56361
H         23.67970        48.22044        -3.23041
H         27.17710        22.51076         0.69940
H         27.07602        50.63082        -1.79486
H         29.26211        21.34603         1.13621
H         29.03956        51.92968        -1.19384
H         32.94533        19.34369         2.38349
H         30.81135        20.48700         2.00666
H         32.84730        54.15980        -1.02824
H         30.76348        52.92714        -1.30042
H         34.47679        18.43207         1.46956
H         34.37617        55.11003        -0.27141
H         36.47071        17.26925         0.83087
H         36.43621        56.33608         0.13180
H         40.20001        14.95330         0.50034
H         38.11381        16.18388         0.89837
H         40.15031        58.47404         0.94429
H         38.06059        57.30106         0.42494
H         42.65243        14.92482         0.20800
H         42.56842        58.42865         1.46933
H         44.79825        16.09949        -0.00296
H         44.67475        57.16369         1.77747
H         48.54230        18.19486        -0.43590
H         46.44368        17.02366        -0.15033
H         48.44421        55.00894         0.76146
H         46.36721        56.25066         0.99062
H         50.20059        19.12195        -0.41460
H         50.09213        54.07370         1.53086
H         52.30487        20.29591        -0.60696
H         52.20655        52.88179         1.56107
H         56.03476        22.42902        -1.25578
H         53.99068        21.25156        -0.78626
H         55.94667        50.68483         1.87087
H         53.85251        51.90622         1.86659
H         57.64487        23.53071        -2.05066
H         57.58434        49.75867         1.76568
H         59.67177        24.88324        -2.41091
H         60.92376        26.95293        -2.00385
H         60.96413        29.37602        -1.57585
H         60.99397        31.21361        -1.08752
H         60.99855        33.60632        -0.68670
H         60.99110        35.42990        -0.13634
H         60.97779        37.82602         0.26042
H         60.92201        39.66524         0.78828
H         60.93145        42.06727         1.10224
H         60.99073        44.01478         0.86048
H         60.95275        46.43723         1.27756
H         59.70417        48.53288         1.63061
