         260
 CSIRO Nanostructure Databank - Neutral Graphene Oxide Data Set
C         30.54681        31.78085        -0.77942
C         30.63138        32.78263        -1.48790
C         30.59418        35.92723        -1.71701
C         30.59617        37.14733        -1.54453
C         30.52911        40.26697        -0.37013
C         30.53830        41.49994        -0.21117
C         32.72935        28.80502        -0.23546
C         31.69095        29.47386        -0.20720
C         32.87140        31.31225        -1.24450
C         31.67428        30.98218        -0.20209
C         33.04406        32.81590        -1.55895
C         31.77165        33.59002        -1.93841
C         33.05022        35.87052        -1.59322
C         31.77385        35.08291        -1.96280
C         32.94200        37.31356        -1.09414
C         31.62586        38.06142        -1.04915
C         32.91538        40.30352        -0.83860
C         31.56998        39.55922        -1.29246
C         32.88994        41.72085        -0.70945
C         31.46229        42.44040        -0.91555
C         32.75114        44.40584        -0.37401
C         31.65495        43.83336        -0.40330
C         35.39833        27.17403         0.60719
C         35.26505        28.52460         0.21561
C         34.13108        29.11557        -0.48410
C         35.36088        31.37137        -0.32317
C         34.20992        30.62810        -0.87464
C         35.24442        32.86473        -0.23094
C         34.27341        33.57523        -1.14280
C         35.39915        35.83193        -0.48788
C         34.29796        35.09953        -1.19260
C         35.45283        37.32541        -0.64079
C         34.20935        38.12335        -1.00464
C         35.19134        40.23505         0.14412
C         34.07656        39.56958        -0.63777
C         35.25664        41.75321        -0.06932
C         34.12124        42.46356        -0.48394
C         35.17393        44.82554        -0.61234
C         34.09937        43.95346        -0.46840
C         35.39382        46.11739        -0.05367
C         37.76397        27.11506         0.84997
C         36.45335        26.56087         0.88641
C         37.73267        28.54371         0.60680
C         36.49505        29.23981         0.34109
C         37.61705        31.43951         0.75184
C         36.43466        30.69811         0.23791
C         37.60621        32.98195         0.89546
C         36.35234        33.67828         0.35929
C         37.62754        35.86019         0.71274
C         36.39952        35.16168         0.14843
C         37.68129        37.33949         0.39485
C         36.59758        38.03956        -0.02286
C         37.74031        40.26425         0.50905
C         36.55483        39.54244        -0.04069
C         37.65692        41.68985         0.96063
C         36.39320        42.45770         0.58819
C         37.75968        44.64737         1.02115
C         36.78604        43.82742         0.26892
C         37.78726        46.11942         0.73944
C         36.61886        46.50866         0.12668
C         40.17714        24.50920         1.97676
C         39.21072        25.13168         1.47400
C         40.27952        27.15901         0.89837
C         38.97696        26.44368         1.01019
C         40.24846        28.61540         0.66421
C         38.99394        29.23246         0.55214
C         40.11628        31.42774         0.10728
C         38.93126        30.70776         0.69571
C         40.06151        32.93752         0.29850
C         38.90849        33.63433         0.46172
C         40.18702        35.89301         0.40273
C         38.87117        35.12564         0.12713
C         40.24151        37.35991         0.70538
C         38.90825        38.01388         0.90749
C         40.19520        40.22310         1.12138
C         38.90443        39.47877         1.02906
C         39.96325        41.58904         1.63510
C         38.94417        42.39819         1.22659
C         40.44938        44.64454         1.63521
C         39.02127        43.87497         1.48353
C         40.37424        46.10032         1.06472
C         39.05941        46.84405         0.83030
C         40.33328        48.83151         0.12853
C         39.29126        48.17296         0.21466
C         42.55884        24.90541         3.02757
C         41.19650        25.40090         2.65921
C         42.74113        27.45737         1.77502
C         41.50875        26.58911         1.61042
C         42.86791        28.62570         0.75685
C         41.50069        29.38056         0.66471
C         42.64512        31.46625        -0.03619
C         41.44121        30.73196         0.41393
C         42.57291        32.96359        -0.14020
C         41.36527        33.65107         0.39276
C         42.73168        35.88060         0.69717
C         41.42438        35.11261         0.69726
C         42.74042        37.36940         0.87611
C         41.53025        38.04779         1.07248
C         42.82449        40.25409         1.56244
C         41.53861        39.54015         1.15208
C         42.95540        41.69632         1.32731
C         41.87680        42.58503         1.58633
C         42.88052        44.47390         0.49157
C         41.68650        43.87773         1.14040
C         42.87178        45.93009         0.12311
C         41.53620        46.66641         0.20160
C         42.98245        48.72677         0.02359
C         41.68754        48.51231         0.65475
C         43.49207        25.70691         3.20538
C         45.82779        27.91819         1.74786
C         43.78677        26.94549         2.51194
C         45.53712        28.96069         0.84776
C         44.13645        29.55025         0.85245
C         45.10999        31.48506        -0.69252
C         44.00978        30.88766         0.19740
C         45.08018        33.03096        -0.66222
C         43.81985        33.77704        -0.38281
C         45.15898        35.97869        -0.22695
C         43.93599        35.17723         0.15716
C         45.25331        37.26046         0.60072
C         44.00703        38.02377         0.89344
C         45.40120        40.16868         1.00416
C         44.15302        39.39266         1.39074
C         45.52781        41.62964         1.36442
C         44.25140        42.40356         1.31321
C         45.52147        44.52260         0.61204
C         44.23196        43.77099         0.69439
C         45.47495        45.91195         0.26742
C         44.22327        46.63124        -0.06377
C         44.05039        48.08743         0.04878
C         48.00466        27.94460         0.97159
C         47.13695        27.36913         1.69615
C         48.00568        29.11797         0.24187
C         46.64372        29.64150         0.17804
C         47.67881        31.78430        -0.57718
C         46.48598        30.92326        -0.40300
C         47.46659        33.10438        -1.29040
C         46.34156        33.81135        -0.60973
C         47.41289        36.00887        -0.95719
C         46.39651        35.12464        -0.30488
C         47.73649        37.23007        -0.10884
C         46.58648        37.94883         0.54487
C         47.94286        40.14299         0.32713
C         46.62324        39.45108         0.48005
C         47.91173        41.67000         0.29032
C         46.86757        42.35344         1.21176
C         48.01829        44.46492         0.59380
C         46.75111        43.82676         0.78278
C         47.84202        45.83314         0.33973
C         46.76164        46.47157         0.20373
C         50.60076        29.44280         0.09390
C         49.18062        29.73399        -0.46953
C         50.27004        32.19680        -0.83270
C         49.08052        31.26427        -0.45486
C         49.88740        33.11868        -2.03523
C         48.68897        33.93647        -1.56149
C         49.74138        36.15027        -1.95708
C         48.65269        35.29850        -1.47661
C         49.69040        37.49353        -1.64156
C         48.93249        38.02759        -0.49184
C         50.41328        40.11501        -0.00462
C         49.04332        39.48111        -0.14261
C         50.47856        41.49298         0.62678
C         49.26062        42.33107         0.63429
C         50.60279        44.26172         0.68896
C         49.26255        43.71567         0.62739
C         51.52256        30.09614        -0.52040
C         52.44479        32.16007        -1.85473
C         51.59935        31.34927        -1.08694
C         52.30376        33.25263        -2.45789
C         51.04819        34.00933        -2.57149
C         52.08779        36.42095        -2.57104
C         50.93723        35.51359        -2.62165
C         52.41285        37.51098        -2.08275
C         51.64497        38.65594        -1.66963
C         52.82816        40.25137        -0.14173
C         51.67256        39.53988        -0.63065
C         52.94542        41.44794         0.17958
C         52.09074        42.34967         0.98354
C         51.71422        43.71234         0.60547
O         41.27713        26.29105         0.21286
O         50.37832        38.48935        -2.31992
O         37.52078        40.15697        -0.94092
O         46.16144        37.28602         1.76461
O         45.12496        36.42554        -1.63756
O         48.94649        37.10732         0.67561
O         43.49017        46.10526        -1.19801
O         43.48450        43.66347        -0.56224
O         38.29191        30.95624         1.97165
O         44.27482        33.62550        -1.74789
O         34.16319        32.98380        -2.46970
O         31.33213        39.83778        -2.57166
O         38.01764        44.29745         2.42128
O         34.50631        29.55301        -1.80992
O         39.78152        46.92453         2.12907
O         50.56788        40.34000         1.47323
O         31.81531        34.30550        -3.17407
O         41.00736        40.17454        -0.09308
O         41.41922        34.15798         1.79019
O         47.75917        42.02781        -1.03732
O         40.39660        36.84785        -0.68448
O         44.93167        42.11580         2.60391
O         32.19891        37.52793         0.16375
O         36.65513        42.00525         1.96725
O         36.48866        44.18989        -1.00126
O         44.99440        27.51722         2.76297
O         34.10599        35.63866        -2.53864
O         43.55159        39.67748         2.67271
O         42.34430        32.12126        -1.31132
O         50.71707        34.68775        -3.79735
O         38.68409        38.65579         2.21261
O         44.15699        30.77575         1.65284
O         35.21905        37.83817        -2.00223
O         48.43096        31.82137         0.71081
O         43.70889        35.23522         1.58616
O         35.16294        33.31631         1.16800
O         46.93373        32.66300        -2.63297
O         45.61110        39.98906        -0.43587
O         46.57295        36.52733        -2.08204
O         40.91532        42.08811         2.48252
O         49.50209        32.25311        -3.10597
H         49.52334        32.76344        -3.94377
O         44.75458        31.04679        -2.02129
H         45.18734        31.65504        -2.66526
O         32.40693        30.73612        -2.46263
H         33.08564        30.87698        -3.15612
O         41.01589        46.65403        -1.10665
H         41.77466        46.68589        -1.73720
O         31.19429        42.45120        -2.27348
H         31.07550        41.49587        -2.58454
O         37.65845        35.84671         2.14441
H         37.63724        34.90729         2.46911
O         37.55266        33.21524         2.33626
H         36.67009        32.90747         2.64343
O         47.47045        42.33618         2.52388
H         46.76783        42.53795         3.18276
O         40.60749        25.99817         3.78211
H         40.44667        25.32270         4.47271
O         40.63351        44.75917         3.04412
H         39.94511        45.37511         3.38627
O         43.10403        28.02745        -0.53129
H         42.44041        27.30309        -0.66427
O         32.01202        31.46859         1.06415
H         31.26068        31.34768         1.68076
O         39.87164        31.22155        -1.31942
H         40.66936        31.54746        -1.80633
O         41.75217        48.70057         2.00713
H         40.87855        48.47653         2.40707
O         52.28127        42.21226         2.33387
H         52.21048        41.26224         2.57198
O         49.18389        29.30458        -1.82500
H         49.23182        28.32659        -1.85487
O         34.84511        40.01081         1.54329
H         35.35833        40.64520         2.10098
O         38.67399        35.11221        -1.30616
H         39.10547        35.91576        -1.68318
O         50.56046        33.07123         0.24388
H         50.31093        32.64510         1.09244
O         46.50566        33.84664        -3.33713
H         47.24929        34.03042        -3.96141
