         661
 CSIRO Nanostructure Databank - Neutral Graphene Oxide Data Set
C          5.81419        31.79626         1.45926
C          6.03197        33.10648         1.13545
C          8.44593        27.52526         2.36559
C          8.42370        29.03840         2.42139
C          7.10085        29.59551         1.88917
C          8.74992        31.96243         1.67038
C          6.84619        30.92322         2.00146
C          8.58184        33.14188         0.96780
C          7.29458        33.82792         0.95792
C          8.49566        35.84279         0.18656
C          7.27913        35.13461         0.52070
C          8.45339        37.20610        -0.03828
C         10.83763        23.25489         2.03816
C         10.84532        24.65591         2.18997
C          9.64421        25.37678         2.33483
C         10.91193        27.58306         2.33697
C          9.61499        26.80135         2.37143
C         10.72578        28.68530         1.29184
C          9.63358        29.65011         1.68808
C         10.79409        31.47105         0.42834
C          9.74514        30.99389         1.32568
C         10.84484        32.83836         0.02124
C          9.71470        33.66978         0.24899
C         10.87097        35.71268        -0.52593
C          9.72305        35.07837        -0.02959
C         10.98132        37.15620        -0.44328
C          9.67475        37.98735        -0.18517
C         10.90497        40.09587        -0.64093
C          9.67575        39.38910        -0.55675
C         10.98593        41.45476        -0.42506
C         13.23419        18.93465         1.07525
C         13.21611        20.45100         0.96720
C         11.98127        21.16298         1.44854
C         13.30698        23.22862         1.83658
C         12.02619        22.51275         1.78103
C         13.33090        24.65409         1.91362
C         12.11111        25.37718         2.05866
C         13.34227        27.45180         1.66190
C         12.13678        26.77049         1.99441
C         13.31310        28.81244         1.18780
C         12.01008        29.37366         0.92039
C         13.62271        31.62040        -0.17436
C         11.81268        30.51319         0.14685
C         13.38917        32.95443        -0.28922
C         12.03380        33.45756        -0.65906
C         13.41363        35.60993        -1.31178
C         12.03453        34.93690        -0.98999
C         13.39995        37.13609        -1.25038
C         12.11372        37.85000        -1.12955
C         13.43130        40.03162        -1.11253
C         12.12138        39.35046        -1.08198
C         13.47937        41.40750        -0.85392
C         12.30920        42.12456        -0.21766
C         13.45209        44.27377        -0.80724
C         12.27784        43.57904        -0.56637
C         13.42106        45.69988        -0.96713
C         15.64844        14.62545         0.45807
C         15.66182        16.13729         0.53481
C         14.48624        16.80432         0.77302
C         15.65084        19.05133         0.58997
C         14.39481        18.24922         0.85603
C         15.70164        20.27005         1.51280
C         14.44782        21.04726         1.63937
C         15.75919        23.21610         1.81454
C         14.50871        22.52394         1.79469
C         15.80363        24.64828         1.87675
C         14.57109        25.35961         1.88053
C         15.82860        27.50973         1.67833
C         14.59025        26.77992         1.73616
C         15.79224        28.94349         1.43150
C         14.52737        29.53664         1.08579
C         15.71429        31.83913         1.03482
C         14.44722        31.03448         0.94522
C         15.50400        33.18403         0.92831
C         14.45915        33.85920         0.15045
C         15.85592        36.02840        -0.32912
C         14.59328        35.10361        -0.41919
C         15.83511        36.98355        -1.54168
C         14.56568        37.82930        -1.46959
C         15.83415        40.01633        -1.55934
C         14.61169        39.29215        -1.42525
C         15.87770        41.40463        -1.35436
C         14.69341        42.12489        -1.02396
C         15.91871        44.28249        -1.17299
C         14.71206        43.55807        -0.92401
C         15.92392        45.77032        -0.90441
C         14.58615        46.46174        -1.04852
C         15.78058        48.63679        -1.06537
C         14.57285        47.86478        -1.06882
C         15.75517        50.03184        -0.84568
C         18.14896        10.38871        -0.39399
C         18.20175        11.88931        -0.22929
C         17.01103        12.58017        -0.03261
C         18.18528        14.70185         0.13756
C         16.98739        13.97867         0.16545
C         18.16261        16.15187         0.26957
C         16.92868        16.84961         0.42965
C         18.16203        18.94029         0.62880
C         16.93701        18.24881         0.60940
C         18.24039        20.32522         1.15371
C         16.99084        21.01311         1.61995
C         18.17606        23.18114         1.52382
C         16.97183        22.48641         1.64864
C         18.23123        24.57207         1.88423
C         17.04411        25.36704         1.97734
C         18.25607        27.63101         2.01214
C         17.05115        26.82578         1.95748
C         18.23647        29.02192         1.61647
C         17.00091        29.70743         1.44524
C         18.25574        31.86696         0.78020
C         17.03114        31.24778         1.51159
C         18.36614        33.14974         0.27746
C         17.37705        34.19070         0.42086
C         18.37759        35.84199        -1.04325
C         17.20559        35.29239        -0.37790
C         18.39616        37.11652        -1.55225
C         17.10117        37.80732        -1.75930
C         18.38631        40.01306        -2.09942
C         17.06803        39.28934        -1.96208
C         18.43692        41.45437        -1.70680
C         17.15439        42.15505        -1.39372
C         18.28504        44.29848        -2.13562
C         17.10981        43.62569        -1.44153
C         18.26882        45.82470        -2.04304
C         17.02238        46.53538        -1.60972
C         18.22483        48.72134        -1.33620
C         17.03139        47.98684        -1.30122
C         18.18209        50.09736        -1.04098
C         16.95331        50.77370        -0.78624
C         18.13395        52.95335        -0.43466
C         16.97017        52.17153        -0.42789
C         18.15188        54.31683        -0.10303
C         20.71305         6.33164        -1.71918
C         20.68136         7.63800        -1.15113
C         19.50554         8.34993        -0.90885
C         20.68198        10.45880        -0.43348
C         19.49810         9.72650        -0.55456
C         20.68321        11.90507        -0.35450
C         19.43415        12.60079        -0.24393
C         20.66944        14.72402        -0.12119
C         19.43394        14.01878        -0.07000
C         20.72717        16.20252         0.17038
C         19.37059        16.87291         0.17327
C         20.63738        19.01364         0.20354
C         19.35450        18.26903         0.30879
C         20.65872        20.48527         0.44956
C         19.40961        21.16195         0.84758
C         20.57985        23.37028         0.77976
C         19.38692        22.50400         1.09999
C         20.71062        24.44157         1.82191
C         19.51700        25.00408         2.30781
C         20.74495        27.76308         2.17327
C         19.50365        27.15665         2.48160
C         20.72558        29.04296         1.52475
C         19.48190        29.69050         1.36779
C         20.81480        31.69550         0.48847
C         19.46755        31.01056         0.70229
C         20.85311        33.11878         0.12327
C         19.59572        33.64355        -0.42192
C         20.94675        35.73573        -1.01798
C         19.63156        35.03931        -0.98678
C         20.98504        37.03812        -1.72563
C         19.67737        37.76036        -1.98120
C         20.91438        40.04282        -1.68344
C         19.70164        39.27014        -2.10512
C         20.91571        41.43175        -1.66535
C         19.69674        42.18253        -2.18199
C         20.79906        44.37499        -1.71805
C         19.63219        43.66133        -1.84944
C         20.83178        45.82727        -1.68464
C         19.58206        46.56634        -1.99362
C         20.76586        48.67495        -1.18305
C         19.52173        48.04043        -1.63594
C         20.71633        50.18402        -1.18702
C         19.43237        50.82920        -0.65413
C         20.68023        52.99136        -0.50494
C         19.39938        52.33689        -1.00608
C         20.63521        54.42169        -0.22726
C         19.35946        55.08426        -0.08126
C         20.52970        57.23158         0.27931
C         19.33523        56.46452         0.18538
C         20.52004        58.61909         0.53815
C         23.06211         3.70522        -2.87783
C         21.92291         4.32956        -2.51590
C         23.17826         6.37808        -1.86770
C         21.91188         5.69729        -2.02316
C         23.21639         7.67406        -1.29255
C         21.96477         8.24700        -0.78035
C         23.22480        10.47089        -0.56603
C         21.96196         9.73731        -0.40841
C         23.17935        11.91108        -0.30294
C         21.89149        12.63097        -0.35497
C         23.13022        14.82450        -0.57130
C         21.88975        14.05932        -0.33220
C         23.08751        16.24866        -0.73450
C         21.70747        16.87815        -0.80073
C         22.98133        19.20712        -0.82289
C         21.73096        18.40243        -0.62491
C         23.02061        20.73553        -0.61125
C         21.83346        21.31349         0.11886
C         23.11760        23.31729         0.71507
C         21.86931        22.61530         0.56785
C         23.17324        24.56324         1.41260
C         21.97603        24.95947         2.09681
C         23.19876        27.56946         1.81937
C         21.99736        27.10703         2.36700
C         23.21554        28.95326         1.43035
C         22.00042        29.66858         1.24492
C         23.27665        31.76641         0.88193
C         22.06696        31.04379         0.90163
C         23.08734        33.29846         1.06595
C         22.00125        33.85768         0.16620
C         23.46997        35.64281        -0.87298
C         22.07339        35.17645        -0.46156
C         23.61698        37.10336        -1.46488
C         22.27737        37.83511        -1.72799
C         23.41390        40.09050        -1.18286
C         22.21555        39.33759        -1.61598
C         23.35789        41.50943        -1.20530
C         22.12590        42.17268        -1.48993
C         23.37633        44.42587        -1.43493
C         22.09229        43.62455        -1.72400
C         23.26478        45.86733        -1.16414
C         22.01415        46.54014        -1.38455
C         23.22409        48.70524        -0.98053
C         21.97481        47.99291        -1.21380
C         23.21269        50.22827        -1.09048
C         21.92381        50.78097        -0.46189
C         23.03521        52.98589         0.29597
C         21.85130        52.29656        -0.36838
C         23.09705        54.46042         0.00833
C         21.82455        55.14570        -0.07071
C         23.00118        57.29345         0.20800
C         21.79618        56.56820         0.12006
C         22.98096        58.66907         0.51299
C         21.72275        59.34248         0.67670
C         22.92742        61.42077         1.12278
C         21.73129        60.73888         0.97061
C         24.40036         4.38301        -2.89765
C         25.59429         6.44341        -2.12213
C         24.39574         5.75984        -2.27345
C         25.63386         7.78316        -1.64643
C         24.41907         8.41022        -1.22203
C         25.63585        10.59054        -1.06640
C         24.41758         9.81853        -0.85837
C         25.62676        11.97078        -1.01785
C         24.46384        12.70635        -0.52572
C         25.55257        14.88704        -1.01793
C         24.35328        14.16133        -0.74975
C         25.52086        16.31054        -1.01553
C         24.25958        17.00127        -0.93416
C         25.45152        19.18578        -0.87477
C         24.27012        18.47152        -0.92578
C         25.51251        20.58329        -0.42869
C         24.32042        21.28300        -0.09461
C         25.55788        23.30367         0.59829
C         24.33787        22.63167         0.38085
C         25.61810        24.66960         1.06368
C         24.38529        25.32971         1.49887
C         25.63408        27.46546         1.62706
C         24.40307        26.75610         1.70930
C         25.66775        28.87550         1.50478
C         24.45657        29.62445         1.29061
C         25.78578        31.65385         0.95206
C         24.49191        31.02672         1.01463
C         25.96845        32.86648         0.21038
C         24.29431        34.25144         1.17302
C         25.81614        35.87167        -0.01147
C         24.55031        35.30314         0.15484
C         25.86116        37.29661        -0.38432
C         24.66517        37.96023        -0.76097
C         25.78022        40.14937        -0.47305
C         24.60892        39.38743        -0.82512
C         25.74652        41.57749        -0.52491
C         24.55560        42.27584        -0.90537
C         25.69798        44.44363        -0.54146
C         24.55155        43.68960        -0.93851
C         25.66548        45.88436        -0.54186
C         24.43413        46.57271        -0.78288
C         25.64984        48.74607        -0.28465
C         24.39521        48.02397        -0.74675
C         25.69442        50.19380        -0.65610
C         24.41102        50.86583        -0.43746
C         25.61093        53.07913        -0.01486
C         24.37387        52.27342         0.05794
C         25.56771        54.45530         0.08447
C         24.28902        55.14566         0.07396
C         25.52746        57.32209         0.33878
C         24.29109        56.62500        -0.15541
C         25.45714        58.67668         0.65718
C         24.21554        59.38751         0.70313
C         24.16271        60.75731         1.00675
C         26.85115         8.51221        -1.63814
C         28.08686        10.62683        -1.44100
C         26.87592         9.89391        -1.40359
C         28.09668        12.03859        -1.41882
C         26.77223        12.74389        -1.61668
C         27.98756        14.91980        -1.28228
C         26.78880        14.20430        -1.23343
C         27.97056        16.33928        -1.16243
C         26.75455        17.01621        -1.08954
C         28.01521        19.25388        -1.25103
C         26.72885        18.49187        -1.18477
C         27.96655        20.75560        -0.98974
C         26.75180        21.19659        -0.20151
C         28.09491        23.26397         0.48474
C         26.78963        22.53208         0.40616
C         28.06120        24.77031         0.40666
C         26.84283        25.34557         1.10412
C         28.15014        27.48005         1.46322
C         26.91827        26.68127         1.80132
C         28.16086        28.84528         1.57924
C         26.91163        29.58783         1.59719
C         28.19009        31.77712         1.63637
C         26.94145        30.97302         1.39925
C         28.36903        32.97926         0.68545
C         27.06532        33.75903         0.49390
C         28.39418        35.79285         0.06574
C         27.04600        35.14655         0.31554
C         28.40241        37.36310        -0.05366
C         27.04017        38.04240        -0.12416
C         28.15965        40.24550         0.20266
C         26.99232        39.45925        -0.13799
C         28.10590        41.62553         0.19979
C         26.91511        42.34130        -0.18405
C         28.00875        44.58993         0.40539
C         26.88733        43.74990        -0.18411
C         28.14245        45.94592        -0.24830
C         26.91340        46.62725        -0.42433
C         28.13720        48.75758        -0.51691
C         26.93475        48.03401        -0.58203
C         28.23899        50.21093        -0.98337
C         26.89132        50.93013        -0.86218
C         28.13611        53.13797        -0.21655
C         26.85247        52.46258        -0.53025
C         28.05005        54.52575         0.07069
C         26.81711        55.21508         0.12358
C         26.74858        56.60830         0.34664
C         29.27300        12.77818        -1.40804
C         30.44214        14.92025        -1.60888
C         29.27429        14.21670        -1.43517
C         30.43952        16.41622        -1.76735
C         29.29584        17.03699        -0.94550
C         30.51564        19.20936        -1.10227
C         29.31357        18.53840        -1.13048
C         30.47828        20.66201        -0.88226
C         29.27959        21.30576        -0.50395
C         30.55689        23.26599         0.25193
C         29.33313        22.61051        -0.00361
C         30.55161        24.63019         0.74689
C         29.39047        25.34938         0.84601
C         30.64700        27.45452         1.51832
C         29.40490        26.84677         0.93246
C         30.68044        28.81489         1.69417
C         29.43173        29.58196         1.58882
C         30.68505        31.69664         2.06501
C         29.44480        30.94364         1.66925
C         30.67146        33.13831         1.61897
C         29.56862        33.78524         1.12515
C         30.64657        35.95911         1.23959
C         29.54855        35.22205         0.88778
C         30.60967        37.43007         1.31395
C         29.32030        38.07839         0.92872
C         30.65315        40.25563         0.83046
C         29.33478        39.57181         0.83216
C         30.63587        41.63420         0.24331
C         29.33717        42.37291         0.55587
C         30.59205        44.52642         0.11372
C         29.33208        43.86940         0.57282
C         30.67507        45.93300        -0.45047
C         29.35845        46.65839        -0.25588
C         30.51541        48.81182         0.26450
C         29.34509        48.06404        -0.31899
C         30.52943        50.29508         0.00400
C         29.39124        50.98154        -0.33652
C         29.32893        52.41350        -0.21204
C         31.72352        17.07077        -1.30772
C         33.04600        18.93403        -0.50443
C         31.78198        18.41216        -1.00621
C         33.45274        20.26110        -0.66253
C         31.64312        21.45069        -0.86037
C         33.08332        23.25303         0.14408
C         31.77848        22.66230        -0.14562
C         33.15260        24.55276         0.73743
C         31.86618        25.19198         1.17618
C         33.16576        27.33942         1.81039
C         31.85800        26.61990         1.66277
C         33.14178        28.81353         1.69591
C         31.96110        29.52128         1.77465
C         33.16561        31.67823         1.69656
C         31.97819        30.97748         1.75756
C         33.21387        33.11915         1.70002
C         31.93459        33.85813         1.88035
C         33.16676        35.98775         1.15755
C         31.91004        35.33408         1.70054
C         33.20007        37.48484         1.44146
C         31.89332        38.22642         1.42958
C         33.15740        40.35105         0.73492
C         31.87377        39.64546         0.99357
C         33.17880        41.75270         0.50642
C         31.85329        42.45654         0.68594
C         33.57083        44.79598         0.04831
C         31.67616        43.74098        -0.05027
C         33.21008        46.12689         0.33732
C         31.92291        46.71917         0.04360
C         31.82262        48.08609         0.17478
C         34.41451        21.06047        -0.02859
C         35.51561        23.23851         0.06725
C         34.31116        22.50394         0.01487
C         35.57945        24.60556         0.36152
C         34.39690        25.22448         0.90742
C         35.67393        27.42110         1.54948
C         34.44656        26.57749         1.54292
C         35.66104        28.78798         1.50508
C         34.38499        29.54336         1.24356
C         35.68456        31.68327         1.29637
C         34.47702        30.93906         1.84250
C         35.63493        33.06066         1.20327
C         34.40812        33.78727         1.45968
C         35.68293        35.97152         1.00318
C         34.46100        35.29684         1.62836
C         35.59806        37.41170         0.51694
C         34.44705        38.21133         1.09050
C         35.62845        40.32401         0.56633
C         34.38279        39.65014         0.75479
C         35.62129        41.73793         0.49629
C         34.42202        42.47517         0.48460
C         34.51840        43.93160         0.59592
C         36.82229        25.27662        -0.04239
C         38.42013        27.22137        -0.02518
C         37.40729        26.36142         0.55125
C         38.63353        28.50309         0.44272
C         36.87280        29.57456         1.45328
C         38.20054        31.60587         0.79338
C         36.90330        30.91995         1.12722
C         38.14235        33.10702         0.65799
C         36.78592        33.78768         0.56249
C         38.17740        35.97628         0.70867
C         36.83072        35.28249         0.81220
C         38.08854        37.45674         0.44424
C         36.90715        38.16636         0.54607
C         36.84979        39.58533         0.52363
C         39.39035        29.53989        -0.20721
C         40.24781        31.72152        -0.68608
C         39.28698        30.90119         0.02858
C         40.21354        33.07941        -0.76517
C         39.18565        33.85318        -0.10958
C         39.14704        35.21339        -0.16000
O         27.61358        22.64949         1.69938
O         20.12820        30.95388        -0.59956
O         31.76794        25.50936         2.61252
O         32.70701        20.98659        -1.62158
O         27.30080        18.92821        -2.50624
O         16.46756        34.04061         1.48006
O         24.87715        34.29166         2.26196
O         22.06906        25.91242         3.11805
O         28.80270        38.86163         2.02725
O         14.94958        20.23831         2.76187
O         22.00843        18.98846        -1.93637
O         19.68055        47.58049        -3.04506
O         20.35499        37.02365        -3.04497
O         22.03399         8.68617         0.61359
O         15.59409        19.57888        -0.74476
O         28.51383        35.24548        -1.25392
O         38.60838        32.51810         1.89091
O         29.34518        43.09880         1.83000
O         22.97955        44.05622        -2.80094
O         24.44137        51.13622         1.01054
O         26.67610        52.00257        -1.86957
O         18.13039        41.66868        -0.30053
O         34.11272        37.93115         2.48545
O         31.09343        37.92778         2.60973
O         21.11416        19.49281         1.50302
O         12.75922        30.76854        -0.85363
O         16.92543        38.39913        -3.10809
O         19.54207        26.00052         3.28640
O         36.87907        26.76419         1.79294
O         19.55113        33.84498        -1.86186
O         24.42934        56.79990        -1.70300
O         24.03386        12.31887         0.82477
O         17.29192        46.31926        -3.02979
O         11.78464        38.61776        -2.33124
O          7.84042        31.67351         2.69605
O         10.68903        37.69770         0.87048
O         32.71126        44.16568        -0.88346
O         31.92786        34.78533         3.03897
O         22.41502        38.62456        -2.94310
O         28.52518        50.13027        -2.34486
O         17.89995        20.40360         2.59496
O         38.07067        28.88588         1.66613
O         33.91466        26.74016         2.92180
O         19.07186        39.73930        -3.34205
O         11.72831        33.90827        -2.01080
O         16.29383        45.89361         0.51082
H         15.57528        45.49036         1.04233
O         22.77968        52.90563         1.72903
H         22.94037        51.96121         1.97287
O         27.77683        21.42120        -2.27674
H         27.30932        20.77043        -2.85646
O         21.30065        16.37560         1.49322
H         20.65440        16.06166         2.15928
O         18.01077        43.97919        -3.54587
H         17.47685        44.73343        -3.90042
O         19.28198        52.57352        -2.42321
H         20.07142        52.18313        -2.86460
O         27.52832        44.92078         1.75201
H         27.91308        44.23719         2.35224
O         19.43881        50.75524         0.80603
H         18.62547        51.20400         1.12554
O         15.86683        36.10479        -2.67568
H         15.91802        36.65954        -3.48403
O          8.57923        29.38225         3.83658
H          8.43104        30.35764         3.90106
O         23.37797        50.59437        -2.47040
H         22.54506        50.38193        -2.95597
O         24.22281        36.94262        -2.77883
H         23.85739        37.67364        -3.34125
O         21.19218        16.59671        -2.12073
H         21.57570        17.26850        -2.73001
O         17.28999        10.04562        -1.49707
H         17.62452        10.49942        -2.29741
O         25.18869        32.94986        -0.86178
H         25.28283        33.77851        -1.39252
O         28.01895        32.37244         2.96349
H         27.68796        31.67489         3.56848
O         30.24165        16.70255        -3.17856
H         30.17353        17.67643        -3.27854
O         30.64105        31.75996         3.53280
H         29.86819        32.32785         3.76226
O         13.66830        35.27770        -2.68384
H         13.15125        34.46444        -2.89707
O         10.27226        27.98872         0.07869
H         10.23284        28.64278        -0.65130
O         27.89580        25.08974        -1.00999
H         28.32397        25.96944        -1.16589
O         35.26197        37.28206        -0.91759
H         36.03056        36.87066        -1.36934
O         23.74979        34.71630        -1.96480
H         23.89913        35.26534        -2.77938
O         14.67237        14.18663        -0.50213
H         14.87037        14.62129        -1.35690
O         38.73118        35.88138         2.07106
H         38.13356        36.37803         2.66984
O         33.04982        35.81561        -0.27538
H         33.78574        36.31159        -0.72129
O         12.56304        42.05143         1.24952
H         13.45490        42.42843         1.40770
O         21.97246        50.26152         0.88600
H         21.10320        50.45230         1.31384
O         29.01500        37.65395        -1.33850
H         28.94144        36.78177        -1.83421
O         26.53461        12.73664        -3.07121
H         27.27911        13.21879        -3.49097
O         17.20143        31.56587         2.92392
H         17.10616        32.54091         3.00692
O         15.77892        36.80671         0.87905
H         15.84292        36.18110         1.63391
O         20.30590        24.05103        -0.48945
H         20.42904        23.40427        -1.21635
O         23.32221        56.13229        -2.32077
H         22.68145        56.86335        -2.49964
O         13.66737        31.45295         2.14435
H         14.11553        31.06857         2.92918
O         13.28832        20.79102        -0.44497
H         14.13649        20.34968        -0.79757
O         22.93263        21.33043        -1.95677
H         22.38745        20.71945        -2.50577
O         34.25700        29.71707        -0.20258
H         34.11521        28.83932        -0.61362
O         31.80251        42.74893         2.10205
H         31.60506        41.91726         2.58364
O         34.68840        30.77158         3.26861
H         34.47762        31.61757         3.71586
O         30.81135        45.84605        -1.89413
H         31.60843        45.29464        -2.07124
O         25.39461         3.55256        -2.27418
H         25.14768         3.43799        -1.33376
O         22.50792        33.36940         2.40895
H         23.26457        33.55473         3.01830
O         20.79171        50.49386        -2.61804
H         20.22514        49.84703        -3.09657
O         34.58629        35.51407         3.05328
H         35.31240        34.94987         3.38941
O         28.67672        32.50925        -0.65041
H         28.76829        33.35111        -1.18319
O         30.21180        48.78122         1.73056
H         31.02458        49.05367         2.20839
O         11.15422        28.17929         3.62942
H         10.31110        28.60336         3.93135
O         19.83969        42.10856        -3.61336
H         19.17566        42.71225        -4.02401
O         29.60694        16.81575         0.46529
H         29.65801        15.84622         0.60846
O         29.45473        27.25830        -0.51702
H         29.32303        28.23249        -0.54783
O         27.04634        26.36289         3.24037
H         26.25040        25.85221         3.50217
O         25.57875        48.73317         1.18936
H         25.80177        47.82467         1.48860
O         36.51497        33.73009        -0.89205
H         35.55778        33.90374        -1.02378
O         30.73684        41.51366        -1.20003
H         30.07734        40.85590        -1.50816
H          4.79634        31.39214         1.34535
H          5.14548        33.68519         0.82539
H          7.47936        26.99717         2.38872
H          6.41292        28.93004         1.34848
H          6.32779        35.68576         0.46429
H          7.48588        37.72982        -0.05307
H          9.87354        22.72335         2.05266
H          8.69164        24.82508         2.37052
H          8.72300        39.93930        -0.57106
H         10.07848        42.01679        -0.15570
H         12.28199        18.39503         1.20544
H         11.00189        20.66300         1.37396
H         11.32754        44.12754        -0.48616
H         12.44283        46.20362        -0.97586
H         15.29856        14.22540         1.45184
H         13.55909        16.21889         0.88079
H         13.60806        48.39272        -1.03452
H         14.79259        50.53431        -0.67090
H         17.65990         9.94925         0.51946
H         16.06026        12.02813        -0.02759
H         16.01668        52.63910        -0.13658
H         17.20934        54.81615         0.17092
H         19.76236         5.81166        -1.91101
H         18.53617         7.86891        -1.10700
H         18.36719        56.96828         0.32660
H         19.55890        59.14232         0.65152
H         23.03298         2.65822        -3.21463
H         20.96173         3.79472        -2.55702
H         22.91567        62.49546         1.35287
H         20.77392        61.26795         1.08159
H         24.71878         4.48351        -3.97502
H         26.53287         5.95832        -2.42805
H         26.37849        59.21175         0.93485
H         25.09798        61.31498         1.15823
H         27.78358         7.99522        -1.91064
H         29.04191        10.08166        -1.49335
H         28.98185        55.08866         0.23170
H         27.68116        57.16013         0.54214
H         30.24196        12.25522        -1.40859
H         31.38957        14.37456        -1.74126
H         31.38315        50.85567         0.42592
H         30.26698        52.95477        -0.00719
H         32.64662        16.47093        -1.27872
H         33.70310        18.22797         0.02592
H         33.91415        46.74377         0.91899
H         32.72644        48.65929         0.44607
H         35.27550        20.60016         0.47957
H         36.44931        22.71853        -0.19219
H         36.58090        42.27310         0.45290
H         35.36403        44.33627         1.17264
H         37.30424        24.85964        -0.94036
H         38.87289        26.91949        -0.98027
H         39.04090        38.00957         0.40311
H         37.79491        40.14630         0.46277
H         40.13122        29.21605        -0.95677
H         41.05435        31.18430        -1.20863
H         40.99194        33.61465        -1.32894
H         39.91695        35.76883        -0.71798
