         490
 CSIRO Nanostructure Databank - Neutral Graphene Oxide Data Set
C         38.28373        49.55514         2.83953
C         37.24454        50.20530         3.48919
C         38.17938        52.38271         2.95989
C         37.24584        51.63075         3.60432
C         40.56819        48.22861         1.46167
C         40.52427        49.65981         1.75096
C         39.32910        50.27884         2.22655
C         40.40806        52.53328         1.77302
C         39.12707        51.75417         1.97101
C         40.36070        53.92687         1.66071
C         42.66788        48.51492         0.21183
C         41.53404        47.68618         0.68838
C         42.89322        49.74867         1.03588
C         41.67562        50.43092         1.53245
C         42.84750        52.63753         1.45374
C         41.65445        51.87513         1.61464
C         42.79282        54.04799         1.41758
C         41.52101        54.66799         1.47164
C         45.03910        45.88767        -1.18266
C         43.91654        46.47531        -0.75340
C         45.14347        48.67769        -0.54860
C         43.84986        47.93268        -0.51041
C         45.10071        50.16562        -0.22282
C         44.17845        50.49910         0.96416
C         45.42538        52.72874         1.28295
C         44.16658        51.91172         1.62774
C         45.39356        54.25869         1.43517
C         44.00005        54.86525         1.29435
C         45.13469        57.02338         0.97553
C         43.94921        56.22478         1.13748
C         47.63534        44.50526        -1.72961
C         47.57010        45.94809        -1.27137
C         46.25007        46.67201        -1.62410
C         47.51555        48.87075        -1.23651
C         46.25498        48.09309        -1.06807
C         47.60169        50.20135        -0.59157
C         46.47183        50.77184        -0.06421
C         47.73385        52.92935         0.15603
C         46.55782        52.11688         0.52594
C         47.69167        54.34032         0.28160
C         46.31792        54.95651         0.39632
C         47.55233        57.21852         0.41989
C         46.33608        56.45396         0.64105
C         47.56128        58.62446         0.54676
C         50.00879        44.54193        -1.14890
C         48.79773        43.83971        -1.65063
C         50.08146        45.99780        -1.43366
C         48.80703        46.67436        -1.88086
C         50.09481        48.83851        -1.27864
C         48.80331        48.17429        -1.59476
C         50.09949        50.22063        -0.92996
C         48.88134        50.89034        -0.56255
C         50.21398        52.97601         0.02589
C         48.91460        52.24737        -0.18081
C         50.10331        54.46374        -0.20176
C         48.83246        55.11440         0.02459
C         49.94963        57.31979        -0.13621
C         48.77319        56.56373         0.07528
C         49.94216        58.72151         0.03584
C         48.72595        59.35574         0.37865
C         52.44816        41.69147        -0.95316
C         51.29139        42.35374        -0.75195
C         52.57935        44.59325        -0.63971
C         51.24566        43.83015        -0.69016
C         52.54724        45.86151        -1.53862
C         51.26940        46.66552        -1.41002
C         52.55159        48.80149        -1.23541
C         51.29857        48.11954        -1.36132
C         52.55556        50.22169        -1.13363
C         51.34103        50.92309        -0.92911
C         52.53841        53.07780        -0.87216
C         51.39033        52.34572        -0.67405
C         52.53046        54.51069        -0.63075
C         51.25073        55.17922        -0.45172
C         52.46846        57.35746        -0.26072
C         51.19531        56.66436        -0.68617
C         52.43977        58.76380        -0.03778
C         51.19672        59.47105        -0.01447
C         52.42348        61.56261         0.24385
C         51.22565        60.87053         0.08613
C         55.00068        40.14864        -1.15307
C         54.93443        41.59537        -1.62158
C         53.70699        42.38917        -1.17786
C         54.98092        44.50753        -1.51574
C         53.76354        43.75164        -1.09281
C         55.02478        45.98642        -1.38657
C         53.81569        46.66847        -1.35322
C         55.02501        48.80108        -1.14249
C         53.78933        48.08955        -1.24132
C         54.99984        50.24009        -1.12946
C         53.80469        50.93031        -1.16226
C         55.05117        53.10485        -0.87225
C         53.80068        52.42466        -1.39549
C         55.04062        54.61481        -0.89587
C         53.70802        55.23865        -0.55773
C         54.90874        57.34091         0.03637
C         53.68172        56.65822        -0.27430
C         54.88899        58.73521         0.27378
C         53.66346        59.46526         0.18564
C         54.89489        61.57658         0.62471
C         53.65414        60.88411         0.34766
C         54.91707        63.02833         0.71041
C         57.46292        40.08320        -1.51079
C         56.14882        39.45000        -1.21621
C         57.49767        41.58541        -1.34838
C         56.19581        42.33155        -1.08642
C         57.60014        44.51952        -1.70974
C         56.26706        43.75923        -1.62987
C         57.52101        45.97094        -1.25508
C         56.28284        46.68129        -1.28649
C         57.50391        48.84872        -0.98685
C         56.26311        48.10402        -1.14522
C         57.50157        50.21162        -0.85572
C         56.28998        51.00106        -1.27899
C         57.44751        53.07772        -0.29961
C         56.22594        52.42265        -0.76481
C         57.37467        54.48172         0.05755
C         56.19754        55.22791        -0.15049
C         57.29843        57.26784         0.69412
C         56.13644        56.60318         0.17473
C         57.25105        58.67986         0.93549
C         56.09336        59.41773         0.66948
C         57.32169        61.55955         1.11945
C         56.07415        60.85822         0.83007
C         57.29538        63.03970         1.46396
C         56.02155        63.72004         1.04906
C         60.18812        37.62991        -2.56498
C         58.92199        38.20480        -2.46246
C         59.82146        39.63860        -0.77846
C         58.70512        39.22716        -1.52241
C         59.73650        41.78685        -0.19757
C         58.67001        42.39154        -0.88713
C         59.91118        44.47957        -0.67391
C         58.73069        43.77621        -1.04879
C         59.92428        45.90870        -0.74195
C         58.74750        46.63259        -1.00185
C         59.94189        48.77946        -0.32919
C         58.83498        48.13633        -1.13914
C         59.90945        50.16429        -0.11333
C         58.80045        50.97835        -0.74543
C         59.79260        52.99829         0.43372
C         58.63643        52.36484        -0.14578
C         59.74020        54.36972         0.78638
C         58.53050        55.13434         0.60157
C         59.64303        57.16497         1.63242
C         58.47900        56.51093         0.91254
C         59.71137        58.64851         1.37443
C         58.42104        59.38780         1.57323
C         59.80750        61.54628         1.57506
C         58.48782        60.86478         1.26447
C         59.83245        63.03149         1.20570
C         58.55364        63.74009         0.99524
C         59.73363        65.61229        -0.05899
C         58.54413        64.98835         0.44634
C         62.77526        36.20923        -2.37551
C         62.61800        37.53885        -1.96139
C         61.32486        38.18686        -1.92086
C         62.30275        40.34495        -0.88082
C         61.15369        39.31909        -1.06682
C         62.15510        41.42233         0.26828
C         60.99025        42.35647        -0.04574
C         62.28032        44.44640         0.10468
C         61.08218        43.75446        -0.26306
C         62.33616        45.83436         0.04242
C         61.23701        46.64004        -0.61518
C         62.22446        48.66877         0.54546
C         61.10096        48.03336        -0.02648
C         62.18977        50.06686         0.81657
C         61.02331        50.82016         0.47622
C         62.15768        52.89408         1.18382
C         60.99294        52.24429         0.67967
C         62.13588        54.29904         1.38780
C         60.93897        55.03090         1.22913
C         62.15669        57.17042         1.42647
C         60.93667        56.44269         1.42074
C         62.13768        58.56501         1.19947
C         60.91391        59.31782         1.16098
C         62.14658        61.38604         0.50019
C         60.98573        60.76102         1.01182
C         62.19321        62.75634         0.19252
C         61.07746        63.64846         0.57564
C         62.12336        65.59825        -0.72280
C         60.93651        64.96917        -0.07641
C         62.31469        67.05303        -0.64425
C         65.04241        36.07125        -1.43503
C         63.96429        35.51208        -2.18348
C         64.95488        37.42531        -0.99606
C         63.79813        38.23605        -1.41882
C         64.75113        40.15356         0.01080
C         63.67288        39.64669        -0.85947
C         64.64820        41.51671         0.48502
C         63.43767        42.20375         0.41206
C         64.66643        44.32328         0.88486
C         63.33187        43.64040         0.85406
C         64.77902        45.78426         0.55359
C         63.47920        46.53684         0.52787
C         64.61715        48.58763         1.26966
C         63.44966        47.91557         0.76931
C         64.59230        49.97761         1.52534
C         63.36955        50.73679         1.31232
C         64.54628        52.84772         1.94614
C         63.33516        52.12700         1.49454
C         64.62401        54.29458         1.73325
C         63.33277        55.02282         1.95178
C         64.63999        57.09819         1.42625
C         63.39866        56.46010         1.53235
C         64.67464        58.56013         1.19564
C         63.39155        59.29416         1.02097
C         64.67425        61.22075         0.07568
C         63.33459        60.50057         0.11221
C         64.65140        62.56315        -0.53032
C         63.33259        63.30691        -0.56739
C         64.67210        65.44447        -1.05914
C         63.36818        64.76304        -0.92771
C         64.68609        66.83250        -1.27982
C         63.49272        67.61195        -1.01938
C         67.61336        33.31204        -1.43840
C         66.47854        34.00267        -1.68463
C         67.15568        35.85819        -0.22307
C         66.19477        35.29695        -1.08534
C         67.08924        37.21164         0.15761
C         65.99934        38.02012        -0.25020
C         67.06911        40.02716         0.82149
C         65.93367        39.41909         0.17770
C         67.03467        41.42558         1.14943
C         65.83901        42.17127         0.96193
C         67.05344        44.29402         1.48911
C         65.82757        43.60177         1.12572
C         67.04253        45.68639         1.65959
C         65.87434        46.46763         1.31794
C         66.97441        48.50891         2.23716
C         65.81934        47.82544         1.53821
C         67.04588        49.97339         1.92163
C         65.83627        50.65036         1.80050
C         67.11772        52.83975         1.80336
C         65.85677        52.10437         2.01395
C         67.11271        54.23288         1.67159
C         65.84687        54.95628         1.64129
C         67.13780        57.11635         1.55014
C         65.85803        56.38245         1.47843
C         67.14165        58.60254         1.30379
C         65.92967        59.08986         0.50613
C         67.14166        61.26091         0.04403
C         65.86987        60.58995         0.29323
C         67.13380        62.63005        -0.43269
C         65.91758        63.31418        -0.65177
C         67.14140        65.39846        -1.11590
C         65.89867        64.70397        -0.95780
C         67.12114        66.76473        -1.55347
C         65.92331        67.48046        -1.64447
C         67.08328        69.50647        -2.46235
C         65.95244        68.86780        -2.06742
C         70.49891        33.27044        -1.93151
C         70.03862        33.69256        -0.67806
C         68.55608        33.64425        -0.30723
C         69.17861        35.51635         1.35712
C         68.19778        34.97201         0.37260
C         69.16415        37.01964         1.65867
C         68.37606        37.84984         0.62124
C         69.35185        39.87641         1.71842
C         68.24891        39.27776         1.10937
C         69.39015        41.30583         1.89166
C         68.21799        42.07503         1.60950
C         69.40130        44.14433         2.20850
C         68.24408        43.51397         1.77223
C         69.42861        45.59808         2.37537
C         68.23177        46.38425         2.07830
C         69.52912        48.48666         2.04054
C         68.28060        47.77471         2.10262
C         69.53332        49.91776         1.87638
C         68.30148        50.66391         1.88932
C         69.56927        52.77098         1.54369
C         68.32966        52.07985         1.73886
C         69.57859        54.19395         1.39258
C         68.35889        54.95026         1.49562
C         69.60158        57.04815         1.05393
C         68.39757        56.35711         1.42739
C         69.62372        58.45413         0.78582
C         68.45670        59.35944         1.13776
C         69.59964        61.24852        -0.04533
C         68.35173        60.60636         0.27147
C         69.62328        62.61689        -0.44165
C         68.37432        63.32459        -0.60706
C         69.64518        65.43106        -0.97219
C         68.36432        64.69545        -0.93655
C         69.65798        66.85626        -1.50775
C         68.37356        67.38295        -2.03748
C         69.66958        69.52817        -2.65190
C         68.36971        68.80192        -2.56905
C         69.69659        70.88718        -3.00225
C         72.76694        33.86312        -1.33279
C         71.85522        33.35259        -2.25712
C         72.32104        34.29400        -0.08097
C         70.96419        34.21661         0.25673
C         71.45904        35.41488         2.48025
C         70.45571        34.67218         1.62708
C         71.44977        36.73750         2.67500
C         70.58924        37.62984         1.81357
C         71.78974        39.80016         2.28802
C         70.47763        39.07036         2.35696
C         71.80931        41.15991         2.34127
C         70.60860        41.93164         2.25245
C         71.85599        44.11903         1.94722
C         70.66663        43.40272         2.57471
C         71.91517        45.45903         1.85692
C         70.78544        46.32737         2.26157
C         71.94783        48.46222         1.66519
C         70.75181        47.76857         1.95414
C         71.95562        49.83560         1.52913
C         70.76176        50.59571         1.64255
C         71.99452        52.74364         1.27812
C         70.78324        52.03358         1.48525
C         72.00161        54.10917         1.09659
C         70.80046        54.86782         1.12976
C         71.96601        56.94249         0.40988
C         70.79946        56.28744         0.87539
C         71.96364        58.29201         0.13436
C         70.79935        59.07696         0.34130
C         72.03147        61.18507        -0.16948
C         70.81927        60.51516         0.05779
C         72.05973        62.53268        -0.51255
C         70.87255        63.27082        -0.66754
C         72.06681        65.36082        -1.35386
C         70.91107        64.68610        -1.00282
C         72.07502        66.70816        -1.81426
C         70.92108        67.44807        -1.98386
C         72.10480        69.52788        -2.68928
C         70.89705        68.82727        -2.47760
C         72.11023        70.87257        -3.04481
C         70.90250        71.56032        -3.19314
O         69.63213        66.60564        -0.06976
O         66.07503        58.48440        -0.74634
O         48.02944        48.89202        -2.61914
O         60.80943        63.73991         2.03997
O         44.01623        49.47527         1.97908
O         64.18286        39.43828        -2.22961
O         67.96614        34.84390         1.83436
O         50.28032        44.31612         0.31827
O         63.78503        62.52791        -1.74247
O         64.17622        59.40177         2.26583
O         62.44547        65.04338        -2.04331
O         65.11658        52.44923         3.24694
O         70.18541        46.03649         3.56683
O         66.98870        58.13427         2.66385
O         68.36166        67.63216        -3.47635
O         59.54209        40.49235         0.30213
O         55.48501        44.00596        -2.82358
O         57.51613        40.99562        -2.68756
O         46.52069        52.13564         2.06574
O         42.77114        48.65320        -1.25295
O         66.65219        48.46092         3.67798
H         66.68122        47.52051         3.95601
O         57.33532        63.09805         2.92720
H         56.61705        62.52338         3.26616
O         44.21641        51.70908         3.05588
H         45.11745        51.37187         3.26273
O         63.06586        59.97024        -1.20854
H         63.24931        60.70166        -1.84764
O         55.25766        54.95395        -2.31359
H         54.60531        54.41594        -2.82711
O         61.92582        40.75934         1.53597
H         61.00324        40.40770         1.51233
O         59.23956        48.36937        -2.54033
H         59.37048        49.35088        -2.63049
O         52.54189        45.34651        -2.89733
H         52.43212        46.09741        -3.51710
O         59.95955        61.46635         3.03275
H         60.48841        62.25696         3.29630
O         56.46383        51.18585        -2.75603
H         56.48681        50.28651        -3.15267
O         44.49363        50.82352        -1.37616
H         43.72168        50.26706        -1.64967
O         63.13218        55.02226         3.41854
H         63.94604        55.38200         3.83195
O         68.36730        32.55583         0.64518
H         67.54603        32.75078         1.14671
O         59.35280        56.98528         3.06939
H         58.76081        57.73873         3.33564
O         58.15601        59.37327         3.03983
H         58.78007        60.03999         3.42673
O         62.85625        43.57879         2.26004
H         62.46259        42.68627         2.39779
O         57.95050        44.60037        -3.12113
H         57.09764        44.63153        -3.61691
O         56.06143        42.46687         0.35007
H         55.85708        41.58560         0.72807
O         68.47613        37.16737         2.92101
H         67.89069        36.37920         3.01859
O         62.23894        41.11964        -2.09536
H         62.78780        40.64564        -2.76510
O         65.23684        45.80593        -0.86275
H         64.44706        45.65814        -1.42863
O         71.27676        37.73084         0.55049
H         71.33158        36.84094         0.14313
O         68.79361        59.91022         2.44986
H         68.38756        59.31000         3.11989
O         50.49184        52.81336         1.46914
H         51.29635        53.33681         1.67204
O         54.90991        41.54253        -3.05747
H         55.81851        41.29831        -3.35940
O         59.23368        51.18639        -2.14786
H         58.45701        51.57593        -2.61927
O         70.16967        39.00908         3.77775
H         69.37418        38.43116         3.87401
O         53.84095        52.61269        -2.85456
H         54.66821        52.16676        -3.16077
O         38.42542        51.82366         0.66211
H         37.58053        51.33556         0.76696
O         45.84953        54.57267         2.76087
H         46.44068        53.83614         3.04155
O         48.80544        46.49252        -3.31218
H         48.08191        47.06408        -3.66469
O         70.84437        43.47331         4.02358
H         70.73469        44.42625         4.26918
O         45.67781        54.72594        -0.89530
H         46.20739        55.18043        -1.58340
O         51.12095        56.83246        -2.15143
H         51.15934        57.79524        -2.33528
O         69.14701        37.89804        -0.61859
H         68.67477        38.49534        -1.23616
O         61.68346        46.87313        -1.99953
H         60.93645        47.33454        -2.45957
O         52.81627        44.99421         0.72258
H         51.93881        45.02013         1.16924
O         47.67246        46.00582         0.16639
H         48.40230        45.41432         0.45577
O         46.16694        46.76514        -3.07101
H         45.38630        47.31487        -3.29346
O         70.13859        33.51220         2.40767
H         69.50774        32.95203         1.88773
H         38.33792        48.45852         2.89887
H         36.46774        49.62290         4.00265
H         38.17232        53.47658         3.06927
H         36.50255        52.11049         4.25747
H         39.72665        47.59860         1.78195
H         39.39686        54.45096         1.71905
H         41.46537        46.63179         0.38626
H         41.43368        55.76009         1.40847
H         45.05165        44.79767        -1.32957
H         43.02812        45.86509        -0.53625
H         45.02963        58.11249         1.08209
H         42.99015        56.76125         1.13091
H         46.74140        44.00870        -2.13490
H         46.63846        59.15928         0.80763
H         48.87276        42.78822        -1.96506
H         48.69172        60.44316         0.52679
H         52.42969        40.59467        -1.00590
H         50.34923        41.80581        -0.61033
H         52.37876        62.65546         0.33276
H         50.29092        61.44631         0.05912
H         54.07599        39.60956        -0.89876
H         53.99903        63.58603         0.48098
H         56.15555        38.37955        -0.95878
H         55.95971        64.81341         1.14396
H         60.32583        36.78640        -3.25476
H         58.09866        37.84617        -3.09521
H         59.63683        66.60560        -0.51929
H         57.60041        65.53509         0.31881
H         61.93031        35.68180        -2.83978
H         61.48851        67.68680        -0.29200
H         64.02518        34.47359        -2.53283
H         63.58055        68.70681        -0.99488
H         67.77869        32.35202        -1.94947
H         65.78642        33.61958        -2.44810
H         67.03775        70.58207        -2.68508
H         65.01603        69.44191        -2.04489
H         69.78753        32.87423        -2.66970
H         68.75521        71.43487        -3.14636
H         73.83361        33.92903        -1.58757
H         72.20080        33.01635        -3.24434
H         73.03558        34.69992         0.65022
H         72.12957        34.77642         3.07539
H         72.15278        37.20243         3.38263
H         72.72479        39.22497         2.35134
H         72.76954        41.68406         2.45389
H         72.71662        43.52443         1.60647
H         72.79859        45.93016         1.40059
H         72.89640        47.91303         1.59408
H         72.91399        50.33446         1.33858
H         72.95355        52.21042         1.25587
H         72.96551        54.60975         0.93832
H         72.88704        56.37210         0.23395
H         72.88084        58.75191        -0.25561
H         72.98795        60.65715        -0.06093
H         73.03391        63.01792        -0.65757
H         73.03077        64.83358        -1.34760
H         73.04751        67.12636        -2.10859
H         73.06613        69.01276        -2.56024
H         73.06484        71.39352        -3.20140
H         70.89974        72.62289        -3.47181
