         732
 CSIRO Nanostructure Databank - Neutral Graphene Oxide Data Set
C         23.01120        24.59658        -1.68707
C         21.82142        25.30595        -1.82666
C         23.05119        27.41459        -1.77099
C         21.83476        26.69681        -1.83491
C         23.02872        28.87273        -1.65718
C         21.80399        29.59683        -1.64214
C         22.95688        31.73146        -1.30699
C         21.76707        30.96198        -1.45042
C         22.93036        33.15364        -1.14085
C         21.73714        33.86344        -0.91673
C         22.93329        35.99003        -0.57725
C         21.72462        35.23342        -0.69596
C         22.91170        37.38811        -0.22383
C         21.70236        38.11823        -0.05307
C         22.92371        40.19782         0.35534
C         21.70731        39.46471         0.24099
C         22.93596        41.63409         0.58830
C         21.75618        42.35994         0.86340
C         22.98511        44.46934         1.00273
C         21.78419        43.73151         1.07521
C         23.01549        45.91083         1.22284
C         21.84098        46.66597         1.34906
C         23.06822        48.76409         1.46690
C         21.88703        48.09021         1.38365
C         25.37709        23.21381        -0.54609
C         25.42346        24.41712        -1.33234
C         24.26405        25.24692        -1.64733
C         25.50062        27.49065        -1.71881
C         24.28731        26.69283        -1.77209
C         25.47583        28.89255        -1.46839
C         24.22866        29.61323        -1.48579
C         25.43397        31.78925        -1.23322
C         24.20709        31.03924        -1.34179
C         25.46417        33.18120        -1.12602
C         24.19021        33.95270        -1.38248
C         25.39269        36.01185        -0.53362
C         24.16948        35.33607        -0.78094
C         25.36913        37.36568        -0.14340
C         24.14488        38.08001        -0.04717
C         25.38688        40.22328         0.22407
C         24.14003        39.49772         0.20925
C         25.39085        41.64410         0.32164
C         24.16617        42.35074         0.53334
C         25.42602        44.48884         0.57926
C         24.19412        43.77104         0.71881
C         25.44201        45.91500         0.80804
C         24.27453        46.58843         1.20803
C         25.59195        48.76711         1.24492
C         24.35500        48.01717         1.69811
C         25.70468        50.13342         1.48510
C         27.86674        23.30156        -0.06941
C         26.51388        22.63082        -0.05239
C         27.89557        24.45101        -1.03815
C         26.74322        24.81699        -1.68405
C         27.96921        27.49987        -1.40246
C         26.78233        26.94487        -1.93641
C         27.91337        28.88542        -1.10195
C         26.70300        29.57428        -1.26198
C         27.99562        31.78297        -1.18177
C         26.70036        31.04762        -1.35616
C         27.95935        33.23159        -0.93529
C         26.69369        33.91728        -0.96159
C         27.88922        36.04272        -0.54691
C         26.66608        35.31529        -0.68927
C         27.89048        37.39025        -0.20268
C         26.63236        38.03828         0.31116
C         27.83271        40.23718         0.11832
C         26.61237        39.53370         0.13316
C         27.84963        41.66543         0.11129
C         26.62281        42.35657         0.23324
C         27.83963        44.48312        -0.01603
C         26.63020        43.78897         0.28287
C         27.72392        45.94166        -0.14719
C         26.62974        46.65771         0.51442
C         27.91759        48.78866         0.38353
C         26.70053        48.06298         0.68640
C         27.99892        50.20339         0.64258
C         26.87853        50.84366         1.18496
C         30.26240        20.25805        -0.12207
C         29.07933        21.00406        -0.11890
C         30.33178        23.04036        -0.46361
C         29.08793        22.39839        -0.28669
C         30.40857        24.48332        -0.86741
C         29.15526        25.22457        -1.25575
C         30.38185        27.40459        -0.91543
C         29.17503        26.72253        -1.20777
C         30.42058        28.83155        -0.77195
C         29.12875        29.57010        -0.54020
C         30.39893        31.73197        -0.63699
C         29.21363        31.04051        -0.84138
C         30.40844        33.18048        -0.64427
C         29.17800        33.89413        -0.76122
C         30.41743        36.04343        -0.34998
C         29.19626        35.38968        -0.94324
C         30.38453        37.41872        -0.06104
C         29.11316        38.13568        -0.06591
C         30.28296        40.28407         0.56332
C         29.07237        39.51244         0.13222
C         30.31871        41.71954         0.08900
C         29.09427        42.39402        -0.01878
C         30.32252        44.52250        -0.50953
C         29.07782        43.82058        -0.20426
C         30.23197        45.93573        -0.70693
C         28.97958        46.69763        -0.49027
C         30.28366        48.80946        -0.29484
C         29.05048        48.11884        -0.11679
C         30.39741        50.17955        -0.00706
C         29.24273        50.91519         0.37533
C         30.48998        52.99385        -0.06073
C         29.33118        52.32696         0.37659
C         32.85828        18.74493         0.03752
C         32.80302        20.14763        -0.06418
C         31.52278        20.88734        -0.18224
C         32.78301        23.03606        -0.12548
C         31.52164        22.29459        -0.34360
C         32.82046        24.52870        -0.16724
C         31.61006        25.28160        -0.56306
C         32.88978        27.40455        -0.66035
C         31.60729        26.64995        -0.69338
C         32.88052        28.87558        -0.46977
C         31.62870        29.56481        -0.57884
C         32.85577        31.71409        -0.33170
C         31.63540        30.99776        -0.47515
C         32.85752        33.15369        -0.27977
C         31.63297        33.87544        -0.42588
C         32.83859        35.98680         0.07350
C         31.62466        35.30776        -0.25505
C         32.81720        37.39133         0.31176
C         31.58099        38.11564         0.25137
C         32.74129        40.27035         0.49112
C         31.56732        39.54450         0.36551
C         32.77826        41.70684         0.31717
C         31.55501        42.42507        -0.00070
C         32.91128        44.41502        -0.53376
C         31.58657        43.79798        -0.40982
C         33.14497        45.63568        -1.19544
C         31.25222        46.75764        -1.23771
C         32.51534        48.90535        -1.34020
C         31.35376        48.13542        -0.98553
C         32.81569        50.14009        -0.80877
C         31.75380        50.85346        -0.00039
C         32.89169        52.96669        -0.77092
C         31.67447        52.31871        -0.35564
C         32.92683        54.36194        -1.04251
C         35.31147        18.74310         0.16251
C         34.07649        18.06945         0.14305
C         35.29273        20.16317         0.03045
C         34.04649        20.83221        -0.08130
C         35.34221        23.05211        -0.02789
C         34.06546        22.29016        -0.28000
C         35.27245        24.52048         0.14849
C         34.13545        25.20305        -0.16196
C         35.37918        27.38620        -0.01438
C         34.16322        26.65900        -0.39581
C         35.32988        28.87245         0.21678
C         34.06529        29.56968        -0.23486
C         35.32357        31.70953        -0.04374
C         34.08409        30.99678        -0.19650
C         35.30532        33.12637        -0.00617
C         34.09118        33.85170        -0.08356
C         35.27379        36.00668         0.39209
C         34.08603        35.28940         0.11032
C         35.25012        37.38869         0.71401
C         34.01167        38.06638         0.67307
C         35.23011        40.24724         1.06073
C         33.94056        39.51466         0.89821
C         35.27097        41.63050         0.52403
C         34.01423        42.38329         0.33398
C         35.36733        44.43973        -0.00764
C         34.10453        43.75577        -0.04213
C         35.43037        45.81690        -0.36252
C         34.31816        46.41722        -1.01082
C         35.45115        48.62341        -0.95029
C         34.40993        47.78629        -1.39134
C         35.35963        50.07848        -0.92712
C         34.12482        50.77534        -0.88877
C         35.33895        52.94466        -0.94061
C         34.11315        52.22683        -0.84344
C         35.35393        54.34524        -1.19606
C         34.11136        55.02144        -1.30282
C         37.85875        15.94105         0.73252
C         36.64108        16.61368         0.57545
C         37.76834        18.75389         0.52627
C         36.58380        18.03637         0.41907
C         37.83529        20.18103         0.06974
C         36.52968        20.92631         0.18559
C         37.74562        22.97909         0.96764
C         36.54900        22.29119         0.32083
C         37.76423        24.50496         0.82047
C         36.50908        25.25178         0.48349
C         37.79790        27.40291         0.39277
C         36.55106        26.70585         0.20809
C         37.82519        28.79794         0.20411
C         36.59632        29.53612        -0.30268
C         37.78519        31.68170         0.25905
C         36.58259        31.01706         0.01520
C         37.82139        33.12285         0.39121
C         36.59085        33.84936         0.03412
C         37.80451        36.00397         0.76942
C         36.58456        35.35009         0.25253
C         37.77639        37.38712         1.05875
C         36.50059        38.10573         0.98467
C         37.68807        40.24656         1.45605
C         36.48936        39.47954         1.08232
C         37.72964        41.68435         1.25409
C         36.59550        42.35911         0.64825
C         37.79773        44.48802         0.53188
C         36.58863        43.81460         0.45867
C         37.89118        45.83619        -0.05319
C         36.63689        46.57676        -0.28497
C         37.95739        48.69467        -0.67292
C         36.65076        47.94510        -0.54420
C         37.79312        50.15506        -0.36249
C         36.58951        50.81140        -0.61838
C         37.74049        53.01704        -0.50647
C         36.56623        52.26061        -0.66472
C         37.81260        54.38360        -0.91603
C         36.61854        55.03106        -1.33117
C         37.92830        56.96196        -2.01083
C         36.70636        56.35075        -1.84860
C         40.38552        14.59592         1.50513
C         40.34518        15.95020         1.09569
C         39.07400        16.61677         0.87543
C         40.29641        18.82313         0.62422
C         39.02914        18.10958         1.03401
C         40.29687        20.18883         0.56511
C         39.05938        20.93464         0.53745
C         40.29466        23.07346         0.61341
C         39.05907        22.30845         0.64105
C         40.26330        24.51247         0.51218
C         39.04243        25.22345         0.59458
C         40.26139        27.33807         0.49827
C         39.02996        26.64106         0.53223
C         40.24948        28.79383         0.85453
C         39.01827        29.51698         0.37131
C         40.23431        31.61487         0.62687
C         39.01945        30.92881         0.37641
C         40.18282        33.01760         1.02720
C         38.96482        33.81185         0.77252
C         40.21699        35.96107         1.20999
C         39.00717        35.26297         0.91289
C         40.24161        37.37536         1.29732
C         39.00010        38.06408         1.31197
C         40.26829        40.27803         1.62066
C         39.00555        39.49769         1.64360
C         40.22085        41.66208         1.68420
C         38.94370        42.40428         1.60401
C         40.31955        44.55504         1.01082
C         38.99490        43.90583         1.17509
C         40.35505        45.91811         0.63921
C         39.17573        46.59649         0.07462
C         40.26689        48.78235         0.36482
C         39.12176        48.05694         0.04345
C         40.25081        50.22401         0.39507
C         38.92608        50.87712         0.23240
C         40.15454        53.19539         0.32563
C         38.88704        52.41032         0.15902
C         40.27182        54.50889        -0.36945
C         39.07678        55.07554        -0.94916
C         40.41567        56.98820        -1.77755
C         39.13734        56.34368        -1.58059
C         40.51642        58.18133        -2.53514
C         42.80236        14.65173         1.56042
C         41.60152        13.96491         1.74189
C         42.80663        15.99514         1.12934
C         41.57193        16.65084         0.92822
C         42.83864        18.82489         0.55758
C         41.55393        18.04109         0.33884
C         42.82550        20.23895         0.52865
C         41.55733        20.94365         0.91984
C         42.75267        23.11186         0.43388
C         41.52345        22.40365         0.57641
C         42.71198        24.50830         0.22200
C         41.49015        25.22193         0.28887
C         42.68946        27.41494         0.12055
C         41.47930        26.66267         0.28571
C         42.71373        28.83082         0.26774
C         41.51261        29.52745         0.51835
C         42.72080        31.68135         0.52095
C         41.48373        30.93483         0.60491
C         42.71230        33.06146         0.72249
C         41.50716        33.73649         1.20099
C         42.77418        35.97071         1.41428
C         41.48457        35.22226         1.40444
C         42.77176        37.45093         1.40462
C         41.49275        38.13839         1.45703
C         42.78162        40.18422         2.14339
C         41.50032        39.52373         1.62756
C         42.75263        41.72174         2.06380
C         41.46573        42.46307         1.84926
C         42.76194        44.54626         1.26843
C         41.51527        43.87974         1.37620
C         42.78062        45.95617         0.95232
C         41.54637        46.66388         0.71689
C         42.70860        48.84397         0.64203
C         41.51305        48.09117         0.59072
C         42.69975        50.25129         0.65181
C         41.42942        50.94193         0.60630
C         42.72092        53.16013         0.60548
C         41.41385        52.42846         0.68920
C         42.74845        54.59747         0.09572
C         41.49814        55.17568        -0.47491
C         42.83951        57.09916        -1.36951
C         41.59372        56.41464        -1.21333
C         42.88736        58.27997        -2.10375
C         41.73534        58.80735        -2.70912
C         45.32235        16.07888         1.03655
C         44.07350        16.71016         0.89354
C         45.32925        18.83512         0.28273
C         44.04591        18.10323         0.62555
C         45.28718        20.28362         0.70241
C         44.01809        21.02089         0.51213
C         45.30027        23.23068         0.69384
C         44.01272        22.41821         0.50513
C         45.25226        24.57989         0.00707
C         43.94871        25.18324        -0.19699
C         45.18193        27.45406        -0.29864
C         43.90347        26.74086        -0.30781
C         45.13920        28.85587        -0.23316
C         43.93236        29.57307         0.02361
C         45.12739        31.76215        -0.04983
C         43.92891        30.99372         0.13618
C         45.16814        33.13618         0.17765
C         43.90911        33.85476         0.41803
C         45.28391        35.93684         1.00332
C         43.97206        35.30595         0.81008
C         45.28809        37.31347         1.62761
C         43.99478        38.09946         1.44620
C         45.25784        40.20163         1.53513
C         44.04868        39.53536         1.60605
C         45.33820        41.67129         1.71587
C         44.05496        42.45757         1.88187
C         45.23538        44.51405         1.14867
C         44.02480        43.86696         1.43029
C         45.23006        45.94308         0.87695
C         43.98156        46.64609         0.82074
C         45.20501        48.77798         0.99201
C         43.98761        48.09530         0.37435
C         45.23098        50.28258         0.81280
C         43.96175        50.99701         0.68567
C         45.21656        53.16785         0.65370
C         43.96629        52.38050         0.60058
C         45.25020        54.51829         0.02779
C         44.06145        55.17403        -0.28204
C         45.38121        57.10879        -1.12849
C         44.06089        56.65025        -0.58250
C         46.54366        16.78228         0.96410
C         47.84090        18.89051         0.58434
C         46.60648        18.14268         0.69417
C         47.83199        20.28641         0.37713
C         46.60016        21.06162         0.59554
C         47.65211        23.07714        -0.49491
C         46.52405        22.46301         0.28633
C         47.69144        24.58992        -0.39299
C         46.42251        25.28969        -0.30896
C         47.63114        27.44916        -0.63337
C         46.40347        26.72880        -0.47216
C         47.62840        28.86315        -0.70015
C         46.34767        29.59020        -0.62806
C         47.62509        31.87813        -0.70528
C         46.32635        31.09009        -0.59471
C         47.60574        33.17100         0.07766
C         46.42235        33.85876         0.26196
C         47.72958        35.94301         0.82714
C         46.44476        35.25673         0.71550
C         47.74495        37.36483         1.03930
C         46.53201        38.08619         1.25442
C         47.72359        40.22841         1.17563
C         46.50821        39.49547         1.28775
C         47.75422        41.64823         1.06002
C         46.53870        42.38063         1.22877
C         47.69432        44.44417         0.67215
C         46.49172        43.77757         1.06310
C         47.64748        45.87641         0.37130
C         46.41565        46.62342         0.61872
C         47.73462        48.68788         1.08498
C         46.47224        48.11972         0.41744
C         47.72385        50.20841         1.07197
C         46.43575        50.93551         0.90005
C         47.77537        53.07360         0.40379
C         46.51538        52.41293         0.81944
C         47.76951        54.44504         0.01698
C         46.52273        55.12856        -0.24256
C         46.52028        56.40843        -0.89944
C         50.28096        18.93414         0.47051
C         49.11308        18.23454         0.62428
C         50.29109        20.34233         0.21072
C         49.02922        21.02477         0.12992
C         50.17999        23.13705        -0.35829
C         48.97985        22.41435        -0.16423
C         50.15198        24.54801        -0.65551
C         48.88282        25.26809        -0.59779
C         50.06229        27.40368        -1.00048
C         48.89431        26.72596        -0.72620
C         50.06212        28.89286        -1.26999
C         48.82522        29.61636        -0.79361
C         50.11223        31.67797        -0.45897
C         48.86336        31.00596        -0.56315
C         50.15618        33.04258         0.14180
C         48.88849        33.78599         0.45827
C         50.20281        35.91338         0.76895
C         48.93540        35.24946         0.68271
C         50.22809        37.34764         0.94288
C         48.99621        38.03945         1.06675
C         50.29996        40.25726         1.01231
C         48.98492        39.48989         1.27707
C         50.22173        41.65999         0.61133
C         48.97691        42.34274         0.74633
C         50.14613        44.47922         0.28378
C         48.92010        43.76333         0.55341
C         50.20874        45.86348         0.27526
C         48.95877        46.62349         0.26874
C         50.21003        48.71670         0.51578
C         49.00656        48.06735         0.53443
C         50.21180        50.19924         0.25318
C         49.00339        50.93092         0.81356
C         50.23510        53.03534         0.40395
C         48.98739        52.37692         0.48619
C         50.22687        54.41176         0.09294
C         49.03242        55.07938        -0.14464
C         52.78674        20.41535         0.10433
C         51.49126        21.06398         0.00143
C         52.64434        23.16315        -0.61981
C         51.44260        22.45319        -0.30968
C         52.59588        24.52486        -0.91363
C         51.34988        25.21940        -0.93251
C         52.55710        27.39212        -0.72161
C         51.34338        26.67626        -1.33926
C         52.56644        28.88368        -0.96374
C         51.35874        29.59733        -0.92310
C         52.57312        31.78182        -0.69964
C         51.31957        31.00356        -0.69357
C         52.61612        33.15518        -0.13846
C         51.41155        33.82468         0.13895
C         52.70677        35.84923         0.72976
C         51.40755        35.17930         0.55796
C         52.74627        37.37740         0.83157
C         51.46156        38.08755         0.81883
C         52.71206        40.18760         0.39493
C         51.49455        39.47799         0.67038
C         52.66353        41.61165         0.14847
C         51.41288        42.28398         0.15369
C         52.59934        44.49919        -0.47071
C         51.33827        43.72925        -0.14955
C         52.66675        45.91080        -0.02158
C         51.45663        46.58755         0.23451
C         52.69399        48.66150         0.76779
C         51.47782        47.99709         0.46096
C         52.59479        50.10758         1.09041
C         51.47442        50.87911         0.69753
C         52.53999        52.95094         1.39083
C         51.44839        52.29205         0.79434
C         53.93176        21.03387        -0.23839
C         55.15336        23.24759        -0.40379
C         53.95051        22.41358        -0.82668
C         55.12308        24.61300        -0.69967
C         53.87874        25.23159        -1.31426
C         55.04753        27.43209        -1.15752
C         53.85023        26.72039        -1.08828
C         55.04557        28.88809        -1.15573
C         53.81806        29.55565        -1.01903
C         55.11706        31.61163        -0.44446
C         53.84164        31.02826        -0.94211
C         55.11831        33.04865        -0.04334
C         53.86310        33.82191        -0.01936
C         55.17433        35.91067         0.19007
C         53.93851        35.18173         0.30181
C         55.18744        37.34620         0.22810
C         53.98872        38.07972         0.44936
C         55.23229        40.26821         0.40516
C         53.94259        39.48792         0.32531
C         55.12363        41.66904        -0.14437
C         53.89557        42.30758        -0.17033
C         55.12340        44.49584        -0.43075
C         53.87577        43.71536        -0.74988
C         55.12699        45.86967        -0.16115
C         53.89849        46.58859         0.15930
C         55.25590        48.46131         1.00496
C         53.92816        47.92526         0.67081
C         55.47726        49.51150         1.92358
C         53.55038        50.80320         1.86117
C         53.54847        52.19787         1.98934
C         57.50310        23.44982         0.24091
C         56.34781        22.68388         0.09320
C         57.53046        24.80375        -0.13546
C         56.31585        25.38821        -0.60750
C         57.56412        27.43341        -1.30321
C         56.29702        26.74903        -1.02710
C         57.53910        28.92101        -1.61474
C         56.28573        29.62137        -1.26993
C         57.60709        31.65805        -0.64662
C         56.36565        30.95099        -0.85984
C         57.57999        33.03329        -0.28019
C         56.38807        33.77754        -0.13722
C         57.51827        35.91109        -0.75516
C         56.36646        35.18628        -0.11248
C         57.60897        37.37004        -0.37118
C         56.42701        38.07124        -0.06616
C         57.59004        40.20394        -0.46415
C         56.43656        39.49958        -0.08183
C         57.55391        41.65085        -0.63238
C         56.34452        42.35928        -0.51367
C         57.52614        44.52990        -0.95174
C         56.34307        43.80070        -0.64271
C         57.53708        45.94786        -0.72884
C         56.37599        46.56449        -0.17857
C         57.71469        48.44588         0.67044
C         56.43446        47.85556         0.45781
C         57.86399        49.49631         1.59261
C         56.75072        49.99166         2.25378
C         59.89751        25.17637         0.62019
C         58.75032        25.61529        -0.07291
C         59.98779        27.64181        -0.74346
C         58.80653        26.86482        -0.74485
C         60.09472        28.85458        -1.67040
C         58.82278        29.75505        -1.72360
C         60.08784        31.67302        -0.64292
C         58.84507        30.99699        -0.85134
C         60.12102        33.02278        -0.26188
C         58.84500        33.77857         0.02238
C         60.13184        35.88684        -0.65218
C         58.83972        35.14457        -0.65489
C         60.08049        37.37032        -0.74260
C         58.83349        38.06551        -0.59590
C         60.00006        40.18902        -1.06004
C         58.81029        39.49088        -0.69600
C         59.92384        41.61085        -1.37556
C         58.72640        42.34098        -1.10231
C         59.72021        44.27498        -2.17260
C         58.67246        43.74329        -1.38498
C         59.73352        46.55997        -1.85070
C         58.71373        46.80165        -0.90040
C         59.99613        48.79367        -0.24675
C         58.83647        47.99202        -0.13302
C         61.04732        25.95880         0.65321
C         61.10322        27.17438        -0.03696
C         61.33171        29.67743        -1.41260
C         61.31587        30.94425        -0.95723
C         61.32309        33.79785        -0.07290
C         61.31991        35.16164        -0.14793
C         61.24446        38.09404        -0.97448
C         61.20462        39.48316        -1.15404
C         60.98816        42.23533        -2.04411
C         60.86432        43.54700        -2.49675
C         60.85856        47.37142        -1.98743
C         61.00259        48.48401        -1.15084
O         51.63697        44.18974        -1.53568
O         38.77055        43.50104         2.56719
O         42.03481        42.29304         3.21055
O         36.15655        41.67855        -0.64031
O         26.86568        25.78095        -2.69712
O         54.44085        50.08602         2.66279
O         48.19281        46.27165        -0.97220
O         33.75407        26.99916        -1.79301
O         46.05584        30.39864        -1.86354
O         52.88473        36.53001         2.02141
O         33.43139        48.32034        -2.23864
O         57.53630        27.94546        -2.70962
O         45.89024        53.10574         1.95904
O         59.59109        45.52751        -2.78415
O         34.87752        22.71390        -1.41378
O         38.79563        45.93941        -1.24124
O         42.74106        54.29353         1.53636
O         43.68337        34.94341        -0.59380
O         36.78219        34.77760        -1.09425
O         27.47496        31.46743        -2.55790
O         40.82616        33.13104         2.35403
O         40.59303        53.07189         1.71040
O         49.83101        39.97671         2.37101
O         59.59621        35.20751        -1.88882
O         45.95991        20.65104         1.91067
O         34.40109        40.00738         2.23660
O         49.57892        33.00075         1.51363
O         38.18283        39.83760         2.80010
O         53.22608        31.74779        -2.05192
O         27.96684        46.42040        -1.53141
O         32.67235        23.79890         1.13625
O         36.94422        25.08287         1.90547
O         43.76977        25.86968        -1.47455
O         44.92510        42.19244         3.03306
O         30.02030        24.63634        -2.29701
O         32.18975        46.13715        -2.07662
O         55.10399        31.96867         0.98478
O         42.22273        35.47982         2.67192
O         48.58815        50.67551         2.18995
O         38.51643        51.69921         1.37515
O         47.39005        22.77131        -1.91957
H         48.13365        23.13980        -2.44224
O         53.96689        43.52647        -2.19808
H         53.03874        43.51994        -2.53472
O         55.45293        40.45239         1.85868
H         55.44681        39.56175         2.27117
O         28.07263        23.86200         1.27885
H         28.04795        23.11838         1.91742
O         30.14099        40.36796         2.04167
H         30.96542        40.77065         2.39165
O         41.56460        20.90219         2.39881
H         40.68538        21.21190         2.70713
O         42.80754        39.84881         3.55901
H         42.34243        40.57955         4.03180
O         50.07559        50.33473        -1.19493
H         50.81920        49.85451        -1.61599
O         36.59378        29.41238        -1.74912
H         37.37513        29.88648        -2.10180
O         54.09719        22.23532        -2.27197
H         54.07615        23.13850        -2.68031
O         41.51354        17.81683        -1.12211
H         41.40498        18.69052        -1.55581
O         29.32955        35.59448        -2.39744
H         28.60788        35.09146        -2.83268
O         52.38668        27.21452         0.72558
H         53.13586        27.65864         1.17609
O         60.24988        28.28040        -2.99825
H         59.40279        27.80864        -3.19804
O         57.16026        35.94300        -2.17480
H         58.00903        35.85644        -2.67364
O         47.71297        32.34873        -2.09094
H         47.30851        31.63769        -2.64483
O         58.78573        30.33825        -3.05577
H         59.42869        29.82737        -3.60495
O         38.31139        48.58816        -2.10280
H         38.47601        47.62651        -2.26556
O         38.98875        18.32131         2.51437
H         38.19829        17.84612         2.85057
O         45.37787        37.08547         3.07584
H         45.14013        37.92291         3.52980
O         46.57976        48.45274        -0.97963
H         47.14247        47.75730        -1.40222
O         37.58933        22.69832         2.39487
H         37.12280        23.47693         2.78543
O         58.82691        34.08282         1.46016
H         58.61981        33.25491         1.94275
O         26.67710        37.83054         1.77896
H         27.46576        38.31148         2.11266
O         51.53285        26.75378        -2.78669
H         50.95127        26.08752        -3.20922
O         40.16254        28.81259         2.33524
H         40.13536        29.75436         2.61229
O         45.40576        23.49744         2.14206
H         45.47407        22.61658         2.57950
O         45.09059        48.50759         2.40355
H         45.99098        48.55452         2.80939
O         28.92093        29.51683         0.94225
H         29.73421        29.87451         1.36009
O         47.74281        48.26355         2.47881
H         48.29667        48.92568         2.96013
O         24.49310        47.92030         3.17343
H         23.70103        47.44389         3.50293
O         54.00110        25.00655        -2.77527
H         54.73069        25.57907        -3.09843
O         35.36265        29.05240         1.66835
H         34.66420        28.49492         2.06990
O         32.21055        50.80727         1.40441
H         31.58202        51.34479         1.93203
O         44.10041        48.09130        -1.07500
H         43.29933        47.65825        -1.43701
O         24.20155        34.18777        -2.85323
H         24.27774        33.30918        -3.28460
O         49.98599        29.01888        -2.74066
H         50.70263        28.44176        -3.10513
O         38.05444        20.07470        -1.39563
H         37.22217        19.73905        -1.79365
O         43.92212        57.29930         0.73946
H         43.36957        56.71719         1.30586
O         45.33959        18.87875        -1.18724
H         45.27248        17.95585        -1.51230
H         22.97392        23.50012        -1.62959
H         20.86603        24.76694        -1.88720
H         20.87481        27.22589        -1.87908
H         20.84869        29.07391        -1.77794
H         20.79028        31.46396        -1.44756
H         20.78005        33.32438        -0.87412
H         20.75645        35.72380        -0.53063
H         20.73458        37.61124        -0.16478
H         20.74446        39.98129         0.35251
H         20.79120        41.84010         0.93193
H         20.83934        44.24184         1.30575
H         20.85732        46.18032         1.31257
H         23.07014        49.86284         1.49277
H         20.94037        48.64588         1.31392
H         24.40492        22.74620        -0.32751
H         24.87104        50.67942         1.94794
H         26.41184        21.72287         0.56232
H         26.91361        51.91715         1.41622
H         30.19343        19.16696        -0.01086
H         28.12242        20.47715         0.00832
H         30.43546        54.08560        -0.17926
H         28.44414        52.93107         0.61082
H         31.93206        18.15393         0.03242
H         31.98954        54.93468        -1.05338
H         34.05010        16.97487         0.23235
H         34.08567        56.09822        -1.51793
H         37.84517        14.84148         0.71250
H         35.72528        16.01528         0.48375
H         37.95449        57.96349        -2.45849
H         35.79859        56.87561        -2.17506
H         39.45064        14.04080         1.66175
H         39.62553        58.61951        -3.00216
H         43.74570        14.12356         1.75081
H         41.61862        12.91747         2.07367
H         43.82978        58.83078        -2.21560
H         41.80394        59.73098        -3.29982
H         45.37204        15.00714         1.26854
H         45.45408        58.08464        -1.62693
H         47.46419        16.22068         1.17821
H         47.47238        56.82226        -1.26001
H         51.22936        18.38381         0.52192
H         49.15972        17.14958         0.78795
H         51.17482        54.96316         0.01693
H         49.07776        56.14436        -0.40880
H         52.83494        19.38341         0.47815
H         52.54172        54.04514         1.48748
H         54.87789        20.47741        -0.18187
H         54.33128        52.68444         2.58528
H         58.41463        22.96138         0.61206
H         56.39086        21.61775         0.35289
H         58.85485        49.90735         1.82277
H         56.84501        50.77856         3.01255
H         59.88323        24.22038         1.16069
H         60.08900        49.70906         0.35128
H         61.92753        25.61067         1.21123
H         62.02832        27.76658        -0.01765
H         62.29368        29.20938        -1.66993
H         62.27151        31.47397        -0.83313
H         62.26858        33.28050         0.15235
H         62.23985        35.72587         0.06305
H         62.20624        37.57018        -1.06489
H         62.14351        40.00567        -1.37840
H         61.89700        41.67369        -2.29421
H         61.64392        44.00511        -3.11819
H         61.60480        47.14083        -2.75805
H         61.88454        49.13263        -1.23963
