         732
 CSIRO Nanostructure Databank - Neutral Graphene Oxide Data Set
C         22.86768        24.84669         1.19904
C         21.65559        25.60150         1.25501
C         22.84991        27.63217         0.57260
C         21.63956        26.94447         1.02861
C         22.91032        29.10718         0.55172
C         21.77912        29.83958         0.28417
C         23.10016        31.85297        -0.19456
C         21.85646        31.22148         0.01410
C         23.15991        33.20059        -0.72735
C         21.97890        33.94957        -0.92283
C         23.25370        35.80916        -1.82749
C         22.02360        35.22515        -1.44502
C         23.27502        37.19867        -2.28825
C         22.08401        37.92271        -2.53492
C         23.31494        40.01905        -2.68150
C         22.10687        39.28509        -2.77238
C         23.33732        41.46124        -2.76192
C         22.20333        42.22203        -3.22585
C         23.32284        44.39159        -2.81423
C         22.20388        43.58173        -3.32185
C         23.51642        45.82184        -3.19091
C         22.52266        46.52977        -3.85696
C         23.75244        48.60291        -3.59904
C         22.65297        47.91254        -4.08100
C         25.33290        23.30060         1.17764
C         25.34460        24.70399         1.07816
C         24.09595        25.43826         0.98059
C         25.43803        27.60395         0.72805
C         24.15534        26.85834         0.58461
C         25.45512        28.98119         0.73897
C         24.20626        29.83254         0.82310
C         25.56176        31.73339        -0.23836
C         24.30392        31.14141         0.05014
C         25.63936        33.04919        -0.81632
C         24.41344        33.77936        -1.07054
C         25.74787        35.59729        -2.19137
C         24.44449        35.08481        -1.62725
C         25.77623        37.11578        -2.38419
C         24.50519        37.88041        -2.37481
C         25.77016        40.01053        -2.28270
C         24.52673        39.29323        -2.47487
C         25.71680        41.43734        -2.16895
C         24.52662        42.14330        -2.41441
C         25.87204        44.31098        -2.41785
C         24.52417        43.62463        -2.32506
C         25.82063        45.80569        -2.22047
C         24.70088        46.50992        -2.75726
C         25.93303        48.62730        -2.36267
C         24.79385        47.92540        -2.92034
C         26.08532        50.02372        -2.53948
C         27.76183        23.22216         1.29819
C         26.50967        22.57447         1.26157
C         27.81131        24.64336         1.18929
C         26.60045        25.39295         1.03656
C         27.91045        27.47913         0.84228
C         26.65059        26.81822         0.87227
C         27.97166        28.89963         0.73969
C         26.73922        29.75283         0.92433
C         28.00137        31.67313        -0.05013
C         26.77328        31.05010         0.11957
C         28.09301        32.98447        -0.61819
C         26.90675        33.67623        -1.01385
C         28.17679        35.76597        -1.45347
C         26.98144        35.04782        -1.48918
C         28.27172        37.17778        -1.70969
C         27.05385        37.88122        -2.17797
C         28.27018        40.10124        -2.13456
C         26.98011        39.34343        -2.06405
C         28.15433        41.42818        -1.46061
C         26.88124        42.11172        -1.56910
C         28.11046        44.38265        -1.19387
C         26.87013        43.64322        -1.50221
C         28.10928        45.75653        -1.19621
C         26.92921        46.49202        -1.68010
C         27.95131        48.63327        -0.80279
C         26.93615        47.90661        -1.66015
C         28.10142        50.09415        -1.17286
C         27.18085        50.71456        -1.99567
C         30.22433        20.34665         1.51791
C         29.01297        21.06872         1.48889
C         30.21492        23.18643         1.79789
C         28.97705        22.45668         1.48942
C         30.28840        24.62123         1.46340
C         29.08756        25.32444         1.20638
C         30.37787        27.41721         1.04185
C         29.12535        26.73467         0.99441
C         30.41330        28.83153         0.80976
C         29.20595        29.54648         0.66126
C         30.48938        31.51122        -0.13064
C         29.21202        31.06829         0.65237
C         30.53885        32.99403        -0.31706
C         29.37122        33.63979        -0.69412
C         30.56498        35.82428        -0.59127
C         29.48359        35.02068        -1.30817
C         30.68917        37.24959        -1.09157
C         29.45893        37.91820        -1.51113
C         30.66374        40.07978        -1.40839
C         29.49112        39.34973        -1.65260
C         30.66766        41.49332        -1.19521
C         29.40816        42.26246        -1.50343
C         30.52654        44.30374        -0.38823
C         29.27325        43.57557        -0.76936
C         30.46868        45.77630        -0.42203
C         29.31352        46.47725        -0.78584
C         30.45854        48.61423        -0.35114
C         29.29282        47.91247        -0.69708
C         30.41415        50.06394        -0.07704
C         29.16578        50.85402        -0.49830
C         30.48600        52.91447        -0.25831
C         29.35358        52.29117        -0.69570
C         32.67277        18.96626         0.81702
C         32.69585        20.25336         1.33197
C         31.47279        20.96152         1.61626
C         32.81020        23.13838         1.90226
C         31.50856        22.39284         1.96875
C         32.80021        24.57062         1.56780
C         31.55218        25.28828         1.44506
C         32.83656        27.43317         1.62442
C         31.57398        26.69364         1.27545
C         32.88164        28.83376         1.08482
C         31.68752        29.52091         0.76483
C         32.97025        31.58200         0.39900
C         31.74142        30.88007         0.38673
C         33.04074        32.95226        -0.00425
C         31.81758        33.68065        -0.32491
C         33.13813        35.68992        -0.89613
C         31.85753        35.03186        -0.60730
C         33.17558        37.18591        -1.01300
C         31.88243        37.92083        -1.04541
C         33.16876        40.09397        -0.96753
C         31.97828        39.35217        -1.52102
C         33.09712        41.45051        -0.71538
C         31.83552        42.17867        -0.82297
C         33.01309        44.30214        -0.35101
C         31.82908        43.59958        -0.52899
C         33.02241        45.74042         0.02520
C         31.67237        46.50010        -0.03110
C         32.92367        48.65431         0.06432
C         31.70617        47.95262        -0.15893
C         32.88096        50.06428         0.23682
C         31.67686        50.79121         0.13039
C         32.85115        52.93661         0.55300
C         31.64673        52.20850         0.20421
C         32.83727        54.35049         0.71069
C         35.10786        18.78796         0.75595
C         33.85136        18.20706         0.63464
C         35.20583        20.19506         1.04702
C         34.04138        20.82178         1.78066
C         35.28435        23.05842         1.24317
C         34.09958        22.35590         1.78933
C         35.28053        24.49189         1.23107
C         34.05381        25.22899         1.42076
C         35.32735        27.33264         1.30519
C         34.09864        26.64957         1.36392
C         35.33806        28.76237         1.21646
C         34.11784        29.49585         1.03083
C         35.40552        31.59837         0.84487
C         34.17477        30.89705         0.74934
C         35.46094        32.97670         0.49765
C         34.28776        33.60170        -0.00534
C         35.67214        35.74041        -0.35135
C         34.40205        34.95311        -0.57585
C         35.59462        37.22558        -0.40684
C         34.44665        37.89374        -0.71613
C         35.61218        40.09261        -0.33096
C         34.50169        39.37907        -1.05476
C         35.53336        41.51319        -0.20291
C         34.30604        42.20480        -0.41418
C         35.50102        44.36061        -0.28860
C         34.27999        43.61459        -0.35859
C         35.47525        45.84534        -0.50776
C         34.23250        46.55478        -0.16095
C         35.44965        48.70476        -0.00127
C         34.20805        47.94966        -0.01227
C         35.39104        50.22488         0.11497
C         34.11519        50.73771         0.77425
C         35.25784        52.96177         1.01735
C         34.06772        52.25020         0.74099
C         35.22570        54.37492         1.18531
C         33.98138        55.04259         1.03604
C         37.54824        15.92575         0.97217
C         36.35545        16.61473         0.83829
C         37.55694        18.70907         0.52671
C         36.34107        18.01793         0.64319
C         37.53761        20.17267         0.13713
C         36.36238        20.90743         0.75257
C         37.53972        23.08390         0.14899
C         36.39635        22.33476         0.80522
C         37.70459        24.49598         0.68241
C         36.51442        25.19068         1.05300
C         37.81992        27.28232         1.31880
C         36.57201        26.60805         1.23256
C         37.76584        28.71463         1.52941
C         36.56595        29.45060         1.27843
C         37.81198        31.58413         1.41094
C         36.60822        30.88231         1.20739
C         37.69875        33.08573         1.61812
C         36.67471        33.74016         0.71290
C         37.96423        35.86880         0.69654
C         36.77203        35.08246         0.39557
C         38.00381        37.24836         0.42260
C         36.92349        37.95451        -0.37466
C         37.95033        40.14913         0.37544
C         36.78482        39.42085        -0.02522
C         37.93992        41.56092         0.32983
C         36.71773        42.25133         0.04907
C         38.00383        44.33784        -0.36285
C         36.69332        43.67238        -0.08745
C         38.00624        45.84028        -0.27861
C         36.78404        46.64970        -0.53681
C         37.88776        48.90559         0.14656
C         36.70037        48.11179        -0.18164
C         37.81272        50.19705         0.79283
C         36.58114        50.86722         0.80875
C         37.67888        52.96109         1.52555
C         36.51597        52.25540         1.15484
C         37.66461        54.37869         1.68053
C         36.43483        55.08716         1.50469
C         37.58495        57.18161         1.94867
C         36.42792        56.49593         1.66569
C         40.15693        14.50330         1.29635
C         40.04823        15.90762         1.18092
C         38.78886        16.60632         0.96061
C         39.98393        18.78286         0.84402
C         38.77057        18.01446         0.70943
C         40.04594        20.20712         0.54391
C         38.85677        20.90397         0.31597
C         40.01865        23.04507        -0.09906
C         38.84640        22.32785         0.13673
C         40.09853        24.48675         0.05475
C         38.92298        25.18153         0.56777
C         40.30972        27.18661         0.82945
C         39.03963        26.56647         0.97785
C         40.64083        28.44558         1.43837
C         38.86471        29.47801         1.96188
C         40.31698        31.50719         1.86756
C         38.98283        30.87004         1.78106
C         40.33794        33.01115         1.80391
C         39.04906        33.79285         1.65854
C         40.34728        35.87759         1.33161
C         39.12437        35.20410         1.21135
C         40.34564        37.30338         1.17013
C         39.16098        37.99872         0.77813
C         40.32079        40.17117         1.05360
C         39.15705        39.43810         0.72095
C         40.33815        41.62116         0.96847
C         39.15757        42.30999         0.55389
C         40.38926        44.43826         0.51138
C         39.19575        43.69794         0.30708
C         40.44895        45.84493         0.21010
C         39.27110        46.37510        -0.40322
C         40.36073        48.91706         0.56343
C         39.19051        48.47563        -0.10886
C         40.26792        50.23008         1.13464
C         39.01564        50.85240         1.21849
C         40.19446        53.00324         1.82407
C         38.91910        52.19175         1.90157
C         40.15698        54.39437         2.00371
C         38.87732        55.10485         1.95509
C         40.04255        57.28346         2.31458
C         38.83212        56.50999         2.07448
C         40.04702        58.66387         2.33190
C         42.57875        14.68581         1.44953
C         41.40127        13.91712         1.48363
C         42.53798        16.07672         1.34381
C         41.24069        16.68003         1.30601
C         42.93981        19.15496         0.94130
C         41.06783        18.09315         1.35309
C         42.70038        20.34831         0.21984
C         41.31346        20.84246         0.06011
C         42.46841        23.00926        -0.84802
C         41.22310        22.28002        -0.44519
C         42.42288        24.50966        -0.90227
C         41.27201        25.18539        -0.25434
C         42.49639        27.37066        -0.28164
C         41.38720        26.59019         0.06452
C         42.38840        28.89385        -0.22688
C         41.56425        29.33909         0.95294
C         42.77208        31.55695         0.96465
C         41.60781        30.74187         1.40696
C         42.78686        32.95951         1.27468
C         41.61797        33.69292         1.51641
C         42.80813        35.83834         1.49208
C         41.60825        35.13962         1.51582
C         42.79268        37.30649         1.60953
C         41.53207        38.05256         1.40458
C         42.76440        40.19960         1.60076
C         41.51214        39.44909         1.35888
C         42.77333        41.69250         1.53672
C         41.51967        42.37575         1.18116
C         42.79020        44.53007         1.09514
C         41.56245        43.76862         0.95586
C         42.76134        45.96712         0.96357
C         41.57616        46.65950         0.55748
C         42.73574        48.82290         1.06928
C         41.54905        48.12358         0.66403
C         42.71472        50.23646         1.37870
C         41.48748        50.92215         1.48134
C         42.66384        53.04259         1.97061
C         41.44417        52.32518         1.77021
C         42.61882        54.44970         2.22764
C         41.38166        55.10737         2.23050
C         42.59527        57.38366         2.56564
C         41.30289        56.55780         2.54487
C         42.47862        58.82347         2.32950
C         41.25590        59.42370         2.32540
C         45.06551        16.45981         1.75151
C         43.85338        16.73607         0.87735
C         45.08138        18.81253        -0.05068
C         43.88900        18.23030         0.56334
C         45.09473        20.25014        -0.39164
C         43.83097        20.97351        -0.41363
C         44.98152        23.05420        -1.22204
C         43.76203        22.30924        -0.84060
C         45.00188        24.53773        -1.10549
C         43.70748        25.26614        -1.12909
C         45.01386        27.42928        -0.81370
C         43.69553        26.75727        -0.90545
C         45.01433        28.90996        -0.71105
C         43.74171        29.62707        -0.30884
C         45.14344        31.65086         0.22397
C         43.87970        30.96061         0.34069
C         45.26504        32.97965         0.67485
C         44.10000        33.62634         1.29868
C         45.34164        35.85279         1.05785
C         44.11700        35.15598         1.49502
C         45.26263        37.32789         0.76927
C         44.08128        38.03414         1.40449
C         45.27686        40.27859         1.04231
C         44.01276        39.50528         1.16331
C         45.25265        41.72910         1.28278
C         44.05229        42.42269         1.34236
C         45.28223        44.60119         1.58534
C         44.00369        43.85237         1.30853
C         45.22441        46.04117         1.19781
C         43.98857        46.70458         1.09980
C         45.20938        48.85412         1.21443
C         43.97289        48.13466         1.10531
C         45.20479        50.24959         1.49692
C         43.93924        50.94572         1.64853
C         45.15337        53.03318         2.28144
C         43.89859        52.31808         1.96118
C         45.16956        54.50788         2.20849
C         43.89041        55.18838         2.65671
C         44.99021        57.31658         1.94094
C         43.87137        56.66469         2.30532
C         46.22502        17.10960         1.53350
C         47.58405        19.03668         0.48698
C         46.39184        18.18064         0.51799
C         47.54262        20.26147        -0.21816
C         46.31842        20.89581        -0.61579
C         47.52099        23.15515        -0.88616
C         46.32491        22.30772        -1.11256
C         47.46734        24.53169        -0.86811
C         46.19653        25.24555        -1.00343
C         47.46742        27.44376        -1.18931
C         46.18092        26.71707        -0.94584
C         47.48437        28.97264        -1.27944
C         46.30457        29.61422        -0.58082
C         47.58350        31.70346        -0.36751
C         46.33580        30.96123        -0.25336
C         47.59880        33.09416        -0.09024
C         46.47353        33.72458         0.47927
C         47.73402        35.89896         0.44789
C         46.48944        35.16783         0.69917
C         47.82884        37.31047         0.87504
C         46.53749        38.07224         1.11813
C         47.74676        40.20258         0.80976
C         46.55407        39.53642         1.01211
C         47.79207        41.67967         0.92704
C         46.54235        42.44256         1.24251
C         47.62900        44.60429         0.66761
C         46.50564        43.90469         1.05742
C         47.62497        46.03868         0.67253
C         46.44012        46.73885         0.97113
C         47.67692        48.89191         0.99885
C         46.44193        48.18020         1.01765
C         47.67708        50.27561         1.31706
C         46.44328        50.91802         1.59862
C         47.67746        53.10071         1.79158
C         46.46562        52.31106         2.05446
C         47.61183        54.49666         1.77845
C         46.33813        55.18508         1.96737
C         46.34936        56.69087         1.85655
C         50.00294        19.21645         0.83712
C         48.79731        18.55897         1.04303
C         50.06486        20.38787         0.06563
C         48.82279        20.93563        -0.49069
C         50.05659        23.19182        -0.59867
C         48.81297        22.44314        -0.81305
C         50.03032        24.59146        -0.63710
C         48.71072        25.31515        -0.44869
C         50.04208        27.46066        -0.95010
C         48.75584        26.71051        -1.03462
C         50.02267        28.90826        -0.95910
C         48.81220        29.61859        -0.90717
C         50.05832        31.75595        -0.67052
C         48.80562        31.02891        -0.68774
C         50.07912        33.15904        -0.57340
C         48.76424        33.89994        -0.62506
C         50.10749        36.01887        -0.20347
C         48.85462        35.29656        -0.07385
C         50.14453        37.41276        -0.02997
C         48.98243        38.10923         0.44157
C         50.05871        40.25160        -0.22131
C         48.94609        39.50007         0.47258
C         50.09613        41.73929         0.02239
C         48.93681        42.40301         0.33359
C         50.04802        44.60726        -0.24831
C         48.79877        43.85414         0.13074
C         50.08023        46.03101         0.21747
C         48.79298        46.82242         0.11834
C         50.13119        48.89208         0.76872
C         48.91119        48.22003         0.69318
C         50.17502        50.30416         1.14010
C         48.92786        51.00298         1.39329
C         50.15605        53.16243         1.75066
C         48.90937        52.39125         1.61844
C         50.05109        54.61905         1.59998
C         48.83983        55.23693         1.58688
C         52.53827        20.42459         0.00070
C         51.29525        21.08124        -0.17026
C         52.51496        23.20476        -0.52533
C         51.28627        22.48062        -0.48273
C         52.49334        24.61964        -0.70863
C         51.24746        25.31380        -0.74921
C         52.51130        27.44714        -1.30456
C         51.23082        26.75320        -0.90850
C         52.51187        28.92020        -0.99314
C         51.28814        29.61704        -0.89642
C         52.52738        31.75052        -0.85720
C         51.29642        31.03949        -0.79162
C         52.54005        33.18431        -0.81309
C         51.30091        33.88825        -0.63184
C         52.56014        36.02829        -0.58071
C         51.32142        35.31105        -0.49875
C         52.60809        37.43749        -0.40514
C         51.37943        38.16317        -0.17210
C         52.64843        40.31489         0.09737
C         51.37436        39.54430        -0.09363
C         52.58005        41.76261        -0.32207
C         51.33034        42.45934        -0.25707
C         52.54135        44.60692        -0.56788
C         51.30884        43.85503        -0.32170
C         52.56466        46.10372        -0.33725
C         51.36626        46.76192         0.25427
C         52.60478        48.87259         0.41282
C         51.38341        48.22868         0.43653
C         52.71459        50.25182         1.00661
C         51.39331        50.97980         1.13859
C         52.69309        53.12652         1.08111
C         51.48694        52.39548         1.51366
C         53.73006        21.10665        -0.14353
C         54.99536        23.22025        -0.47284
C         53.75184        22.49873        -0.39557
C         54.97312        24.62093        -0.54739
C         53.74646        25.34294        -0.72213
C         55.00399        27.47010        -0.91345
C         53.77261        26.73889        -0.88609
C         54.99515        28.89592        -1.04481
C         53.74509        29.61432        -1.00376
C         54.99343        31.74863        -1.08505
C         53.75634        31.03839        -0.96935
C         54.99272        33.17519        -1.14187
C         53.75408        33.89316        -0.97388
C         54.96788        36.05322        -1.10109
C         53.77221        35.32846        -0.89354
C         55.01419        37.45466        -0.93212
C         53.82550        38.16205        -0.56106
C         55.05059        40.30186        -0.61470
C         53.86358        39.58517        -0.42081
C         55.04928        41.75199        -0.57638
C         53.80294        42.46431        -0.50299
C         55.02782        44.62109        -0.59501
C         53.81991        43.89058        -0.58151
C         55.03491        46.07174        -0.43000
C         53.85801        46.78619        -0.19947
C         55.03995        48.93660        -0.07896
C         53.84384        48.19473         0.07034
C         55.01600        50.38611         0.03234
C         53.85091        51.06201         0.43051
C         53.77078        52.48970         0.54220
C         57.43596        23.14626        -0.77271
C         56.24316        22.51158        -0.63247
C         57.55721        24.58613        -0.53579
C         56.23351        25.36768        -0.45143
C         57.47677        27.47623        -0.97299
C         56.24684        26.79770        -0.78485
C         57.46244        28.89002        -1.15754
C         56.22270        29.60040        -1.12465
C         57.44289        31.74957        -1.34131
C         56.22102        31.03738        -1.19107
C         57.43049        33.17549        -1.43038
C         56.20560        33.87199        -1.34382
C         57.46689        36.05936        -1.44476
C         56.16224        35.34188        -1.67689
C         57.47420        37.46724        -1.31003
C         56.24810        38.18242        -1.07952
C         57.50702        40.29652        -1.00231
C         56.27696        39.58781        -0.89838
C         57.58330        41.76960        -0.64846
C         56.25264        42.49032        -0.67967
C         57.55854        44.64758        -0.53603
C         56.25290        43.89608        -0.66872
C         57.44379        46.12267        -0.84153
C         56.27742        46.80680        -0.53078
C         57.45599        48.99503        -0.58389
C         56.25735        48.25913        -0.43027
C         57.40580        50.42345        -0.49263
C         56.23788        51.08939        -0.24105
C         59.97124        24.64248        -1.16268
C         58.77218        25.32970        -0.94814
C         59.93215        27.44806        -1.36828
C         58.72902        26.74780        -1.06736
C         59.91827        28.89724        -1.46390
C         58.69137        29.60603        -1.35213
C         59.89809        31.74384        -1.63503
C         58.68161        31.03300        -1.44645
C         59.89026        33.19302        -1.67775
C         58.67511        33.89812        -1.58125
C         59.92181        36.05147        -1.60567
C         58.67977        35.34132        -1.55580
C         59.92957        37.47932        -1.54273
C         58.70947        38.18633        -1.37679
C         59.95102        40.35503        -1.44101
C         58.70501        39.62003        -1.27334
C         59.94809        41.75328        -1.52427
C         58.61941        42.48463        -1.51849
C         59.91491        44.62058        -1.41007
C         58.73861        43.95707        -1.18420
C         59.96773        46.11428        -1.39014
C         58.64509        46.88241        -1.19748
C         59.94022        48.94579        -0.87103
C         58.70184        48.31739        -0.86975
C         61.14312        25.33598        -1.47952
C         61.12553        26.72008        -1.57119
C         61.10892        29.62966        -1.67067
C         61.10056        31.00965        -1.75084
C         61.10953        33.92908        -1.78156
C         61.12569        35.29984        -1.73995
C         61.15287        38.22915        -1.61418
C         61.16168        39.59395        -1.57205
C         61.12300        42.51974        -1.79697
C         61.09911        43.89057        -1.79978
C         61.18035        46.84104        -1.04698
C         61.15413        48.20493        -0.90196
O         39.90981        28.78800         2.58736
O         35.40221        35.06918        -1.63324
O         48.95224        21.42973        -1.86278
O         41.27115        30.97215         2.81384
O         30.73704        22.80625         3.13262
O         45.90680        17.91208        -0.83844
O         26.38037        42.90328        -0.38341
O         44.36441        34.23796         2.60377
O         59.20885        46.61956        -2.53947
O         42.79089        40.96417         2.83745
O         49.06677        44.27862        -1.27879
O         39.67371        33.61387         2.97898
O         50.81750        46.10787         1.47726
O         23.45012        27.10347        -0.68189
O         36.08751        46.27556        -1.78473
O         57.02159        25.03289         0.74801
O         45.67954        22.52380        -2.39719
O         45.90818        52.47951         3.41074
O         29.64387        43.65139         0.62273
O         26.61354        37.44954        -3.55882
O         47.31345        37.54993         2.22907
O         47.50538        42.08183         2.32982
O         51.01655        52.72487         2.85967
O         42.12871        23.72866        -2.10501
O         29.37760        50.42760         0.90441
O         42.06662        18.83821         1.97989
O         39.39340        47.55937        -1.13227
O         48.15100        26.83901        -2.36137
O         33.67035        22.88154         3.08934
O         23.59788        44.18182        -1.36719
O         33.21768        36.32408        -2.22509
O         43.68074        37.71106         2.75063
O         29.12908        31.47838         1.97623
O         44.40983        39.91657        -0.19021
O         32.27012        46.02071         1.23729
O         44.17111        29.61648        -1.71196
O         41.95237        56.92882         3.81439
O         43.52363        26.18729        -2.26026
O         41.04041        21.16998        -1.36803
O         52.35320        45.58631        -1.68927
O         37.38941        37.93760        -1.76228
H         36.68694        38.37982        -2.29943
O         38.19939        44.08751        -1.81504
H         37.51287        44.61937        -2.28113
O         47.17304        57.26804         2.88986
H         46.83425        56.94887         3.75226
O         29.53955        42.69822        -2.90998
H         29.42589        41.88959        -3.47243
O         32.24074        39.24195        -2.98421
H         31.74097        38.46529        -3.31825
O         34.90892        39.40667        -2.47030
H         34.08793        39.22703        -2.99829
O         55.95928        35.39256        -3.14525
H         56.73010        34.94920        -3.55990
O         34.20264        50.34855         2.17781
H         33.37187        50.61784         2.62268
O         24.11301        30.24173         2.23791
H         25.04032        30.44496         2.53681
O         26.79547        30.19602         2.32796
H         27.65282        30.73829         2.41350
O         57.87769        44.60596         0.90953
H         58.03952        43.65070         1.12627
O         30.13587        35.92365         0.79486
H         30.81993        36.40254         1.30650
O         32.77967        27.58908         3.09750
H         32.74484        26.68797         3.48560
O         49.71845        40.17940        -1.66355
H         49.76826        39.23668        -1.93277
O         37.12254        33.22288         2.95221
H         37.87636        33.17164         3.58644
O         27.38926        48.60131         0.55517
H         27.97999        49.16884         1.11008
O         37.13052        23.24793        -1.25196
H         37.91953        23.53111        -1.76154
O         45.44128        44.59610         3.05987
H         45.71084        43.68982         3.32636
O         48.53092        46.99627        -1.30948
H         48.51496        46.09123        -1.70771
O         37.30046        20.19649        -1.31037
H         38.14404        19.96939        -1.75630
O         52.83559        40.37828         1.57740
H         52.82290        39.45477         1.90988
O         34.19651        20.38323         3.16277
H         33.81854        21.10245         3.72429
O         30.24693        30.92982        -1.45894
H         30.98844        31.19808        -2.04219
O         29.95115        34.81730        -2.67418
H         29.27314        34.29388        -3.15102
O         41.64545        29.28669        -1.41897
H         42.27446        29.20759        -2.17422
O         38.76269        51.88534         3.34277
H         38.68314        52.74052         3.81696
O         44.08081        16.03866        -0.37978
H         44.84817        16.47512        -0.82921
O         58.10228        42.42376        -2.88406
H         58.71125        42.93467        -3.45812
O         26.33920        44.07399        -3.78248
H         27.26721        44.38429        -3.85233
O         53.12698        50.00821         2.40877
H         52.37732        49.56968         2.86603
O         48.57535        25.52865         0.99823
H         48.75741        24.67961         1.45295
O         48.47436        34.07288        -2.06144
H         48.34717        33.17911        -2.44682
O         58.07303        41.83773         0.73350
H         57.45628        41.32202         1.29541
O         45.09026        37.41042        -0.67299
H         44.90247        38.35995        -0.89605
O         43.92387        55.10582         4.11136
H         43.16678        55.65260         4.43821
O         28.53503        40.29789        -3.61474
H         28.33974        39.44105        -4.05537
O         52.52559        27.36208        -2.78616
H         51.68468        27.75202        -3.10940
O         25.82674        35.00272        -3.52756
H         26.33511        35.64336        -4.08012
O         35.38751        50.73692        -1.25139
H         36.16593        50.36263        -1.71538
O         47.30040        29.30608        -2.69079
H         47.62595        28.53319        -3.20826
H         22.80459        23.78068         1.45490
H         20.73682        25.08737         1.57023
H         20.73247        27.53072         1.23089
H         20.80232        29.34242         0.19586
H         20.91806        31.75647        -0.17579
H         21.00134        33.53654        -0.64557
H         21.08489        35.78127        -1.55906
H         21.11639        37.40486        -2.55278
H         21.15907        39.80575        -2.96307
H         21.32301        41.67641        -3.59425
H         21.34340        44.08433        -3.78635
H         21.61153        46.02089        -4.19958
H         23.79991        49.68953        -3.74774
H         21.85499        48.45227        -4.60905
H         24.38089        22.75479         1.17436
H         25.35564        50.59364        -3.12757
H         26.44922        21.48127         1.33611
H         27.27086        51.78972        -2.20730
H         30.16241        19.25943         1.37727
H         28.08873        20.49190         1.35035
H         30.54657        54.00471        -0.37476
H         28.56562        52.87970        -1.18484
H         31.71629        18.49164         0.55739
H         31.89791        54.90870         0.60775
H         33.75574        17.15816         0.32241
H         33.91267        56.12909         1.17450
H         37.51988        14.84065         1.14103
H         35.40698        16.06645         0.92140
H         37.53063        58.27047         2.06889
H         35.49414        57.06270         1.56300
H         39.26471        13.86633         1.22864
H         39.11035        59.22564         2.22490
H         43.54992        14.17096         1.44962
H         41.47755        12.82467         1.57729
H         43.38324        59.42320         2.16161
H         41.18249        60.51411         2.20920
H         45.01107        15.68605         2.53254
H         44.96789        58.40469         1.77530
H         47.08735        16.88986         2.18050
H         46.82008        56.98180         0.87709
H         50.91886        18.79671         1.27410
H         48.80138        17.61544         1.60351
H         50.97053        55.22005         1.56997
H         48.80076        56.33180         1.51932
H         52.55986        19.34851         0.21870
H         52.72169        54.21661         1.21530
H         54.67062        20.55522        -0.01763
H         54.62208        53.10174         0.21171
H         58.31856        22.56991        -1.08238
H         56.21205        21.42414        -0.78382
H         58.32230        51.00593        -0.65654
H         56.25562        52.18627        -0.19741
H         60.01062        23.55004        -1.06034
H         60.01136        50.02929        -0.70412
H         62.07947        24.78454        -1.63962
H         62.06032        27.24101        -1.81361
H         62.07194        29.11127        -1.75998
H         62.05600        31.52650        -1.90598
H         62.06545        33.39858        -1.87577
H         62.09261        35.81500        -1.80507
H         62.11026        37.70185        -1.71618
H         62.12447        40.11697        -1.64393
H         62.07501        42.00944        -1.99879
H         62.01480        44.45113        -2.03277
H         62.10593        46.28183        -0.84853
H         62.09217        48.74326        -0.70362
