         470
 CSIRO Nanostructure Databank - Neutral Graphene Oxide Data Set
C         38.18574        50.31736         0.07402
C         36.92957        50.88451        -0.14414
C         37.22655        52.31671         1.78162
C         36.44076        51.87153         0.71706
C         40.29307        48.67214         1.17925
C         40.27985        50.05123         1.40685
C         38.99579        50.73865         1.14615
C         40.44748        52.83197         2.66618
C         38.49581        51.75913         1.97235
C         40.52912        54.19494         2.96361
C         42.68214        48.55422         1.56996
C         41.46525        47.92506         1.31992
C         42.72318        49.97766         1.71751
C         41.49409        50.71035         1.76605
C         42.78342        52.82351         1.99005
C         41.54858        52.11936         2.12162
C         42.82605        54.24174         2.16881
C         41.68841        54.90444         2.66448
C         45.01026        45.64285         0.91199
C         43.90990        46.29145         1.32347
C         45.23725        48.44634         1.69460
C         43.92248        47.73755         1.68043
C         45.26336        49.95120         1.75136
C         43.97779        50.68938         1.75352
C         45.22639        52.83184         1.47965
C         44.00099        52.09496         1.74095
C         45.20782        54.26380         1.44753
C         44.03181        54.97587         1.82999
C         45.19440        57.09015         1.42696
C         44.06656        56.38522         1.82584
C         47.49291        44.20914        -0.21320
C         47.47721        45.66041         0.00206
C         46.26410        46.36842         0.57759
C         47.72459        48.47280         0.85697
C         46.47834        47.71595         1.22851
C         47.70564        49.96135         0.80824
C         46.52784        50.69483         1.35992
C         47.56029        52.87130         0.71990
C         46.41325        52.15208         1.12369
C         47.56133        54.27453         0.74795
C         46.38488        54.99068         1.08521
C         47.51918        57.16360         0.53164
C         46.37970        56.43204         1.03069
C         47.50678        58.59908         0.42519
C         49.92283        44.16439        -0.58926
C         48.65657        43.53518        -0.50669
C         50.06081        45.60750        -0.17319
C         48.76966        46.37033        -0.00682
C         49.94005        48.50665        -0.31299
C         48.81437        47.75421         0.13006
C         49.94881        49.93503        -0.22682
C         48.75762        50.64252         0.26267
C         50.04781        52.82304         0.24871
C         48.70395        52.14249         0.04994
C         50.08281        54.32419         0.22446
C         48.80508        55.05205         0.52466
C         49.84706        57.13675        -0.35527
C         48.71823        56.48074         0.17056
C         49.73480        58.58405        -0.63113
C         48.55929        59.28412        -0.09519
C         52.36822        41.36490        -1.12483
C         51.17101        42.04136        -0.98258
C         52.36550        44.16571        -1.09917
C         51.13292        43.46116        -0.90580
C         52.31993        45.61726        -1.41024
C         51.04914        46.33783        -1.07172
C         52.40138        48.54912        -1.11658
C         51.02996        47.83124        -1.01203
C         52.41206        49.93175        -0.59839
C         51.12194        50.63271        -0.51466
C         52.31276        52.80269        -0.96305
C         51.23153        52.07708        -0.22831
C         52.21981        54.28635        -1.13793
C         51.13026        55.03375        -0.52525
C         52.27967        57.12890        -1.06407
C         51.06465        56.42757        -0.69283
C         52.29639        58.63730        -1.25655
C         50.97546        59.36090        -1.03218
C         52.19594        61.43914        -0.42552
C         51.06340        60.82409        -0.81485
C         54.93137        39.89745        -1.02903
C         54.86507        41.33343        -1.02028
C         53.60265        42.05206        -1.15780
C         54.83439        44.23808        -1.18417
C         53.59185        43.47779        -1.17256
C         54.86206        45.60627        -1.33142
C         53.61969        46.37474        -1.75606
C         54.86203        48.52783        -1.23103
C         53.65507        47.81555        -1.23765
C         54.91710        49.94557        -1.16754
C         53.73386        50.68599        -0.73678
C         54.87096        52.89579        -1.39076
C         53.62681        52.11877        -1.15723
C         54.82003        54.28678        -1.52152
C         53.53966        55.03321        -1.47662
C         54.77266        57.20494        -1.17118
C         53.50082        56.47669        -1.20893
C         54.74466        58.57039        -0.80473
C         53.46374        59.23647        -0.49812
C         54.73447        61.43621        -0.06093
C         53.44032        60.69249        -0.11851
C         54.76537        62.84294         0.29018
C         57.30201        39.88963        -0.44758
C         56.12045        39.21771        -0.85157
C         57.19408        41.33774        -0.24635
C         56.02575        42.05238        -0.77107
C         57.29615        44.25588        -0.54223
C         56.15155        43.49150        -1.18820
C         57.23755        45.70415        -0.67867
C         56.10026        46.34030        -1.14167
C         57.38430        48.57162        -1.20143
C         56.13581        47.78936        -1.59090
C         57.37755        50.00302        -1.36148
C         56.12197        50.70834        -1.39507
C         57.36191        52.87835        -1.74191
C         56.08434        52.13620        -1.43800
C         57.32685        54.36131        -1.41161
C         56.06878        55.08971        -1.86397
C         57.26158        57.27519        -1.35518
C         55.99362        56.53484        -1.40052
C         57.27951        58.75070        -1.09042
C         55.93743        59.40314        -0.85938
C         57.16008        61.53305        -0.61073
C         55.90783        60.78797        -0.36502
C         57.10927        63.02296        -0.44642
C         55.88922        63.59239         0.14810
C         59.88574        37.18176        -0.18906
C         58.65641        37.84159        -0.27729
C         59.73325        40.01835         0.14442
C         58.54004        39.24528        -0.15719
C         59.72265        41.40248         0.16357
C         58.43173        42.12648         0.11036
C         59.56586        44.29864         0.60126
C         58.41207        43.59912        -0.08826
C         59.62093        45.79516         0.23846
C         58.43608        46.50910        -0.33558
C         59.87534        48.58185        -1.07472
C         58.54250        47.89423        -0.87075
C         59.84233        50.08107        -0.81110
C         58.60543        50.76243        -1.17546
C         59.81319        52.92009        -1.11766
C         58.57136        52.14796        -1.21888
C         59.71464        54.34653        -0.77592
C         58.48554        55.03206        -1.05347
C         59.61176        57.22525        -0.35820
C         58.54679        56.52324        -1.12024
C         59.65480        58.69583        -0.22479
C         58.50064        59.42835        -0.57246
C         59.63725        61.58672        -0.17711
C         58.47063        60.84620        -0.45892
C         59.62973        63.05440        -0.22397
C         58.40424        63.74591        -0.40276
C         59.56233        65.76057        -0.98809
C         58.36899        65.10459        -0.73923
C         62.39544        35.74815         0.08405
C         62.33456        37.17155         0.17951
C         61.06302        37.84677         0.14152
C         62.25898        40.04768         0.43644
C         60.97162        39.27533         0.61571
C         62.23062        41.46195         0.43089
C         60.94568        42.18309         0.32866
C         62.12370        44.30805         0.75563
C         60.88954        43.55802         0.42221
C         62.13641        45.80692         0.74440
C         60.95905        46.43472         0.06010
C         62.17225        48.60744         0.17214
C         61.06159        47.82757        -0.46813
C         62.09328        50.09418         0.23527
C         60.99203        50.77622        -0.49161
C         62.34026        53.06327        -0.44052
C         61.11297        52.21280        -0.81216
C         62.01408        54.40651         0.22231
C         60.76990        55.00619        -0.07415
C         62.27118        57.44347         0.71917
C         60.46182        56.37763         0.31797
C         62.13153        58.80134         0.25981
C         60.86353        59.44888         0.04537
C         62.12361        61.62789         0.02605
C         60.88135        60.88662        -0.04336
C         62.08532        63.12768         0.43760
C         60.84694        63.79990        -0.20066
C         61.99646        65.91406        -0.87677
C         60.77861        65.12126        -0.69429
C         62.52551        66.39945        -2.03000
C         64.82336        35.77713         0.21868
C         63.59154        35.07507         0.10887
C         64.79335        37.20027         0.33611
C         63.54030        37.90180         0.31781
C         64.71215        40.08869         0.48990
C         63.50104        39.35962         0.42143
C         64.68564        41.49632         0.63459
C         63.44446        42.16877         0.56498
C         64.61649        44.34923         1.18816
C         63.46115        43.66927         0.43405
C         64.65215        45.82739         0.86095
C         63.44592        46.51227         0.65186
C         64.66382        48.61662         0.45961
C         63.45694        47.90310         0.42488
C         64.62624        50.08979         0.29203
C         63.35064        50.84075         0.68452
C         64.58697        52.95907         0.53120
C         63.43825        52.29329         0.27114
C         64.58202        54.44097         0.63291
C         63.25004        55.15473         0.65793
C         64.64403        57.29340         0.27789
C         63.34719        56.63308         0.48275
C         64.62081        58.77928         0.07588
C         63.31621        59.48789        -0.00067
C         64.63357        61.50063         0.25473
C         63.31578        60.90494        -0.08592
C         64.65161        62.93807         0.62849
C         63.49523        63.83057         0.34825
C         64.99983        65.90370        -0.13391
C         63.75691        65.18299         0.25687
C         64.87717        66.86805        -1.22059
C         63.81802        67.03687        -2.08600
C         67.31963        33.06879        -0.48333
C         66.15047        33.73361        -0.31254
C         67.27290        35.79110         0.47319
C         66.08301        35.09040         0.19176
C         67.25426        37.22261         0.56572
C         66.02752        37.90325         0.43380
C         67.22147        40.07030         0.78560
C         66.01742        39.39033         0.18263
C         67.18953        41.55197         0.93890
C         65.91665        42.27654         0.77190
C         67.15338        44.40122         0.99497
C         65.92324        43.64729         0.90776
C         67.13163        45.80857         1.01757
C         65.88038        46.52986         0.86569
C         67.13611        48.68092         0.81979
C         65.88777        47.94315         0.70148
C         67.14846        50.09800         0.70608
C         65.89819        50.84217         0.45305
C         67.11081        53.00497         0.60292
C         65.84475        52.26443         0.99263
C         67.08706        54.40575         0.31760
C         65.86160        55.14319         0.32481
C         67.07416        57.18975        -0.31726
C         65.87103        56.50830         0.01922
C         67.04346        58.62134        -0.73479
C         65.74721        59.44686        -0.69024
C         67.10835        61.52422        -0.08922
C         65.91129        60.85164        -0.12911
C         67.16943        62.90070         0.40363
C         66.00627        63.47574         0.83059
C         67.57812        65.97528         0.29964
C         66.19504        65.59602         0.48663
C         67.84871        67.37552        -0.01143
C         66.95232        68.15182        -0.78265
C         68.26651        70.13632        -0.33215
C         67.17478        69.52599        -0.94357
C         69.92837        31.66938        -0.76184
C         69.88220        32.99412        -0.29994
C         68.56929        33.58721         0.09051
C         69.83315        35.74548         0.75419
C         68.52893        35.01986         0.59927
C         69.79192        37.27441         0.85502
C         68.50356        37.97316         0.68670
C         69.74436        40.11439         0.68622
C         68.52076        39.35928         0.66024
C         69.68427        41.58860         0.59681
C         68.44393        42.31395         0.86329
C         69.65227        44.45664         1.12518
C         68.42087        43.70559         0.94568
C         69.57216        45.86842         1.34646
C         68.35699        46.54855         1.17110
C         69.56850        48.73650         1.18142
C         68.33974        47.99634         1.10350
C         69.57124        50.14875         0.95635
C         68.33628        50.84123         0.78635
C         69.55987        52.98862         0.44376
C         68.31424        52.29078         0.61234
C         69.55301        54.38878         0.17077
C         68.31495        55.10241         0.07487
C         69.57023        57.21695        -0.38300
C         68.30548        56.50355        -0.23100
C         69.60453        58.60124        -0.55948
C         68.35615        59.36290        -0.77188
C         69.68369        61.50317        -0.19085
C         68.37039        60.85709        -0.53218
C         69.73063        62.80990         0.55565
C         68.46350        63.60340         0.72886
C         69.91899        65.66142         0.91424
C         68.61154        65.10088         0.67273
C         69.98871        67.11996         1.19574
C         68.99113        67.99517         0.54757
C         70.44289        70.01568         0.90187
C         69.21261        69.38719         0.39716
C         70.61698        71.41489         0.85975
C         72.32187        31.79940        -1.02368
C         71.13440        31.06986        -1.12153
C         72.29517        33.11264        -0.56628
C         71.08641        33.73998        -0.18964
C         72.23272        35.90276         0.30111
C         71.08450        35.12425         0.29359
C         72.22046        37.30438         0.50455
C         71.04383        38.02486         0.64888
C         72.20079        40.23938         0.87102
C         70.99069        39.47114         0.67385
C         72.21067        41.59071         1.01044
C         71.01376        42.39706         0.74313
C         72.08837        44.55682         1.47627
C         70.90269        43.80351         1.15399
C         72.05091        45.88114         1.75740
C         70.75462        46.62473         1.90913
C         71.98182        48.80377         1.46018
C         70.79486        48.07264         1.46458
C         71.99527        50.16892         1.15564
C         70.80451        50.86838         0.90513
C         72.00138        52.99532         0.39543
C         70.79292        52.28443         0.58183
C         72.00513        54.34368         0.10683
C         70.79670        55.08581        -0.00007
C         72.05010        57.20132        -0.38886
C         70.80551        56.48586        -0.25681
C         72.10891        58.52137        -0.67216
C         70.88080        59.34424        -0.89869
C         72.10812        61.31868         0.11805
C         70.93732        60.70737        -0.22168
C         72.17830        62.70501         0.48478
C         71.05475        63.48237         0.63182
C         72.35960        65.52691         1.23682
C         71.08802        64.89148         0.98013
C         72.49854        66.85921         1.46050
C         71.33764        67.74881         1.54392
C         72.71253        69.82929         1.77819
C         71.51108        69.21870         1.38263
C         72.86713        71.21262         1.71727
C         71.80978        72.00660         1.26415
O         64.95240        58.27461         1.39074
O         51.47752        48.43908        -2.25217
O         69.07929        62.89367         1.86635
O         62.69337        66.08841         0.32609
O         57.50470        41.71801         1.17500
O         64.47603        61.90560         1.68953
O         58.21268        56.98196        -2.47016
O         61.58497        49.27015         1.36326
O         61.95501        45.09518         2.00158
O         49.82686        54.84835         1.57637
O         52.62674        52.17437        -2.24111
O         39.25714        52.20472         3.06259
O         65.31944        50.62107        -0.88018
O         69.88539        36.41403         2.04922
O         66.00367        67.59330        -1.63398
O         44.67021        47.92356         2.94181
O         46.22026        50.39675         2.76671
O         69.08524        61.63789        -1.55395
O         56.22794        47.68925        -2.99732
O         67.70262        58.90364        -2.02123
O         61.40995        46.69702        -1.32554
O         56.61907        59.42236        -2.19826
O         67.06810        40.61565         2.12573
O         46.47919        46.38932        -0.86834
O         56.97259        62.41310        -1.78046
O         61.17625        56.88796         1.39552
O         70.34967        67.42489         2.58082
O         68.44521        33.88392         1.52306
O         50.01105        58.97289        -2.05515
O         63.92118        54.76976         1.91963
O         66.06228        64.67152         1.54647
O         47.56023        47.83062         2.18972
O         51.01275        52.32423         1.21521
O         60.74611        52.51732        -2.20357
O         53.25242        59.62638         0.89584
O         70.41058        42.12407        -0.55953
O         58.75385        46.55344         1.14388
O         52.55001        54.67652        -2.49549
O         53.24865        50.24747         0.57221
O         51.23410        45.83212        -2.40920
O         50.72297        45.62039         1.14300
H         50.07188        45.33435         1.81832
O         63.35546        50.87255         2.14163
H         62.71406        50.18266         2.44677
O         64.41986        44.20997         2.61393
H         63.54763        44.61874         2.83579
O         70.82559        59.62639        -2.33457
H         70.09976        60.28309        -2.47369
O         65.25186        59.57766        -2.04416
H         66.04335        59.59591        -2.63398
O         52.62606        58.86851        -2.65161
H         51.82900        58.63604        -3.17764
O         62.97734        53.48622        -1.68662
H         62.28370        53.42116        -2.39096
O         56.52287        43.40386        -2.61750
H         56.35241        44.28516        -3.01980
O         70.50271        46.69601         3.36575
H         70.40265        45.77570         3.69009
O         65.83949        52.17946         2.43936
H         64.94269        51.86613         2.70934
O         61.77749        63.08504         1.85563
H         62.53599        62.63659         2.29627
O         60.79449        39.16752         2.07742
H         60.62294        40.07054         2.42228
O         48.47158        52.33236        -1.38896
H         47.65665        51.84986        -1.64170
O         53.67409        46.45835        -3.19605
H         52.81796        46.84282        -3.49181
O         59.29254        44.20456         2.02012
H         58.76628        45.00272         2.26181
O         57.50888        52.81559        -3.20519
H         56.89465        53.49918        -3.58053
O         60.10208        48.56220        -2.51779
H         60.37563        47.64868        -2.75977
O         56.13220        55.16353        -3.33886
H         56.84477        55.81539        -3.54614
O         63.70063        43.95066        -0.97710
H         63.05116        43.44797        -1.51175
O         66.20347        39.53784        -1.27057
H         65.46336        39.07346        -1.71590
H         38.55200        49.53772        -0.60891
H         36.31844        50.54333        -0.99049
H         36.86122        53.09083         2.46861
H         35.44321        52.30136         0.55323
H         39.35918        48.15619         0.91878
H         39.66516        54.70036         3.41343
H         41.41539        46.83625         1.19290
H         41.71248        55.98362         2.86168
H         44.96023        44.56484         0.70178
H         42.99159        45.71680         1.51241
H         45.14032        58.18645         1.41874
H         43.17629        56.95887         2.11508
H         46.53831        43.66700        -0.22960
H         46.63264        59.16395         0.77497
H         48.58035        42.46074        -0.72787
H         48.50906        60.37701        -0.19229
H         52.34980        40.26734        -1.15025
H         50.24355        41.46044        -0.89284
H         52.21498        62.53598        -0.34891
H         50.17118        61.42362        -1.04675
H         54.03249        39.31824        -1.27816
H         53.86367        63.29665         0.72599
H         56.12159        38.12641        -0.97693
H         55.91463        64.62685         0.52073
H         59.90157        36.10997        -0.42888
H         57.76952        37.24359        -0.52375
H         59.57327        66.79524        -1.35554
H         57.40591        65.60783        -0.89781
H         61.46792        35.16452         0.02694
H         61.94238        66.33574        -2.95889
H         63.58415        33.97800         0.07217
H         64.00277        67.69837        -2.94495
H         67.32562        32.11824        -1.03444
H         65.23156        33.28193        -0.71059
H         68.41049        71.21399        -0.48188
H         66.48921        70.11357        -1.56748
H         69.00360        31.08001        -0.82542
H         69.80042        72.06394         0.51674
H         73.27890        31.33723        -1.30200
H         71.14824        30.02902        -1.47208
H         73.24569        33.65642        -0.49051
H         73.20188        35.45328         0.04688
H         73.18091        37.83142         0.42380
H         73.13843        39.69237         1.04054
H         73.13793        42.08963         1.32528
H         73.06278        44.04940         1.43718
H         72.98995        46.40005         1.99420
H         72.93786        48.31622         1.69202
H         72.96263        50.68793         1.14445
H         72.96509        52.47535         0.47186
H         72.97442        54.83662        -0.03685
H         72.99596        56.65677        -0.27069
H         73.08838        58.99467        -0.82731
H         73.05737        60.76913         0.06096
H         73.18129        63.13148         0.61386
H         73.26971        64.91416         1.19532
H         73.50812        67.29098         1.51539
H         73.53650        69.21477         2.16663
H         73.80893        71.67556         2.04173
H         71.91712        73.09941         1.22811
