         232
 CSIRO Nanostructure Databank - Neutral Graphene Oxide Data Set
C        -11.14380         0.66190         0.27292
C         -9.95627         1.43652        -0.01280
C         -8.80541         0.68429        -0.55869
C         -7.61197         1.41965        -1.11946
C         -6.35023         0.66173        -1.57643
C         -5.04543         1.41786        -1.36213
C         -3.82222         0.67680        -1.76307
C         -2.50990         1.44380        -1.84405
C         -1.20931         0.69357        -1.75431
C          0.09756         1.43577        -1.50320
C          1.24991         0.73638        -0.85064
C          2.44803         1.48871        -0.52461
C          3.62785         0.85091        -0.15705
C          4.88831         1.56369        -0.10228
C          6.11635         0.80118        -0.00540
C          7.38535         1.48845         0.01223
C          8.61566         0.77381         0.03974
C          9.88535         1.48845         0.01607
C         11.09460         0.69674        -0.08849
C         -9.91138         2.80294         0.00144
C         -8.66969         3.49922        -0.25094
C         -7.55320         2.84427        -0.76681
C         -6.25631         3.60400        -0.93042
C         -4.98486         2.75746        -1.00198
C         -3.74458         3.49808        -0.98136
C         -2.58050         2.97185        -1.79888
C         -1.27972         3.62169        -1.38608
C          0.01674         2.94523        -1.43046
C          1.19205         3.69862        -0.87302
C          2.44338         2.97545        -0.52552
C          3.73681         3.71917        -0.54210
C          4.95923         2.95175        -0.32684
C          6.22548         3.61814        -0.26807
C          7.39300         2.90961         0.00228
C          8.65231         3.59549         0.47566
C          9.90560         2.86329         0.08289
C         -8.59384         4.85707         0.23752
C         -7.37493         5.44970         0.48151
C         -6.14976         4.70964         0.10306
C         -4.83785         5.41072         0.22214
C         -3.68559         4.84378        -0.51270
C         -2.56454         5.65746        -0.64540
C         -1.33280         5.07409        -1.19520
C         -0.04672         5.89190        -1.12410
C          1.26221         5.15789        -1.22095
C          2.55315         5.88969        -1.04940
C          3.77482         5.08207        -0.72429
C          5.06249         5.81683        -0.77806
C          6.37679         5.04036        -0.76059
C          7.52920         5.76918        -0.08187
C          8.64359         5.08348         0.28948
C         -7.22061         6.65059         1.23092
C         -5.98308         7.25764         1.43145
C         -4.78934         6.79313         0.75422
C         -3.64937         7.58152         0.64405
C         -2.67719         7.16111        -0.48582
C         -1.32157         7.81779        -0.41166
C         -0.09401         7.23183        -0.47319
C          1.17133         8.03670        -0.29950
C          2.51553         7.35711        -0.66150
C          3.75092         7.92717        -0.09536
C          5.04177         7.28479        -0.41013
C          6.28307         7.90158         0.11869
C          7.45587         7.19296         0.16497
C         -5.87990         8.43917         2.23721
C         -4.68791         9.08712         2.33428
C         -3.53661         8.74043         1.52995
C         -2.38436         9.47219         1.85429
C         -1.17920         9.44725         1.09674
C          0.12284         9.55598         1.51938
C          1.25214         9.13876         0.70816
C          2.48250         9.68793         1.01847
C          3.72891         9.13919         0.57870
C          4.97341         9.79641         0.93832
C          6.18249         9.22685         0.68781
C        -11.13851        -0.69852         0.20614
C         -9.90844        -1.46256         0.08646
C         -8.60211        -0.68579         0.02964
C         -7.42274        -1.42291        -0.57363
C         -6.31877        -0.80179        -1.07692
C         -5.13695        -1.66017        -1.57952
C         -3.81174        -0.85437        -1.69878
C         -2.51736        -1.53597        -1.38171
C         -1.22752        -0.81078        -1.59754
C          0.05497        -1.45872        -1.13696
C          1.20632        -0.63821        -0.69090
C          2.29819        -1.34476         0.00886
C          3.58023        -0.56605         0.25080
C          4.87769        -1.30792         0.53706
C          6.08863        -0.58754         0.01666
C          7.33333        -1.33067        -0.18575
C          8.61657        -0.63700        -0.04603
C          9.81392        -1.39146        -0.01916
C         11.06168        -0.66776        -0.06737
C         -9.88929        -2.80755         0.26478
C         -8.57130        -3.49809         0.46785
C         -7.48124        -2.90036        -0.40625
C         -6.20881        -3.68704        -0.49604
C         -4.96836        -2.94543        -0.79060
C         -3.75640        -3.49811        -0.51417
C         -2.50262        -2.81423        -0.85168
C         -1.24318        -3.55042        -0.66466
C          0.00785        -2.87056        -0.71764
C          1.22637        -3.53728        -0.42412
C          2.35692        -2.82589        -0.03200
C          3.58631        -3.53670         0.28791
C          4.85976        -2.80598         0.27194
C          6.04241        -3.49175         0.30722
C          7.32290        -2.84545        -0.01992
C          8.59555        -3.53366         0.24131
C          9.78278        -2.81146         0.12221
C         -8.61252        -4.99073         0.35253
C         -7.41560        -5.71157         0.38914
C         -6.14666        -4.99819         0.19055
C         -4.93690        -5.56588         0.45893
C         -3.65044        -4.77798         0.30730
C         -2.50070        -5.64667        -0.16940
C         -1.24707        -4.93590        -0.45458
C         -0.01274        -5.72504        -0.64710
C          1.34187        -5.03859        -0.64765
C          2.27495        -5.68313         0.41161
C          3.57812        -4.91196         0.42273
C          4.86542        -5.68804         0.29938
C          6.06799        -4.90519         0.83199
C          7.36624        -5.64853         0.60530
C          8.55260        -4.95252         0.46836
C         -7.38737        -7.10581         0.60358
C         -6.17749        -7.74088         1.09591
C         -4.87938        -6.91031         1.08661
C         -3.58096        -7.64937         1.08637
C         -2.44255        -7.07057         0.31637
C         -1.08665        -7.72876         0.56477
C         -0.00280        -7.19047        -0.36041
C          1.28373        -7.89465        -0.13862
C          2.44516        -7.16944         0.14659
C          3.63855        -7.86127         0.39792
C          4.81213        -7.08849         0.93686
C          6.13761        -7.79693         0.76086
C          7.31442        -7.08429         0.66181
C         -6.06775        -9.21518         1.07261
C         -4.89447        -9.87673         1.07237
C         -3.57988        -9.19986         1.09058
C         -2.43221        -9.87580         0.48787
C         -1.18586        -9.27355         0.35101
C         -0.00484        -9.97759         0.06804
C          1.26360        -9.31393        -0.05429
C          2.49456        -9.99635         0.09699
C          3.68249        -9.27797         0.31280
C          4.96091        -9.94112         0.49933
C          6.11660        -9.23642         0.67959
O          5.05072        -5.87548        -1.13203
H          4.19196        -5.72004        -1.58757
O         -6.45554         0.54074        -3.02328
H         -7.40670         0.36272        -3.21740
O         -3.31008         7.65951        -1.70566
H         -2.75534         7.36826        -2.46276
O         -3.26889        -8.37404         2.27193
O          6.77551         4.88502        -2.15409
H          6.46670         5.69262        -2.62701
O          7.27992        -2.23240        -1.36151
O          1.48420         3.47058         0.53872
O         -6.33107         4.28594        -2.21692
H         -6.27358         3.61120        -2.92679
O         -0.21915        -6.74344        -1.72762
O          5.06086        -1.23271         1.99289
H          4.16343        -1.32407         2.39132
O         -8.22989        -0.42721         1.41869
H         -8.14667        -1.31155         1.85943
O         -3.89537        -0.14410        -2.96862
O          2.60470        -0.77463         1.33433
O          2.04019         5.54222        -2.38393
O         -0.30737        -1.38844        -2.57794
O          1.83872         8.27039        -1.57371
O         -7.19595        -3.66755        -1.59615
O         -3.25526        -4.36897         1.65302
H         -4.05886        -4.12930         2.16014
O          1.98034        -5.23203        -1.93119
H          1.35800        -5.75337        -2.49077
O          0.43819         2.23935        -2.67334
O         -8.71962         0.93537        -1.99088
O          5.95013        -4.72779         2.26970
H          5.64646        -5.58918         2.65556
O          4.55368        -6.96047         2.37205
H          3.64009        -6.60638         2.47943
O         -8.14745        -3.18129         1.86031
H         -8.75415        -3.65410         2.46983
O         -5.47774        -2.08272        -2.91314
H         -5.46875        -1.26592        -3.46840
O         -2.82950        -6.77504        -1.05592
O         -5.63474        -7.06856         2.31081
O         -0.61414        -7.41800         1.82851
O          1.67145        -5.59371         1.72922
H          0.90655        -6.23757         1.79853
O         -0.79919         5.85892        -2.35631
O          5.09612         6.84460        -1.82248
O         -5.29994         4.42976         1.24826
O         -1.77342         1.05453        -3.04548
O          8.59375         3.44412         1.95504
H          8.63693         2.48319         2.15161
O         -2.83862         3.41253        -3.16432
H         -2.32297         2.81816        -3.75865
O         -1.38477         9.19764        -0.27264
H         11.99964        -1.24162        -0.09569
H         12.05759         1.22583        -0.13581
H         10.86274         3.40569         0.06168
H          9.49694         5.63631         0.71477
H          8.34725         7.67456         0.59759
H          7.11150         9.73699         0.98128
H          4.91456        10.78265         1.42033
H          2.51802        10.53602         1.71834
H          0.33016         9.92080         2.53660
H         -2.41162        10.07368         2.77652
H         -4.59530         9.96181         2.99459
H         -6.75997         8.78691         2.79630
H         -8.11708         7.11885         1.66522
H         -9.52201         5.34877         0.56450
H        -10.77888         3.38526         0.34609
H        -12.08025         1.20157         0.47823
H        -12.07291        -1.26065         0.35279
H        -10.82557        -3.36950         0.41021
H         -9.56812        -5.51449         0.50592
H         -8.30994        -7.69667         0.50825
H         -7.00820        -9.78222         0.99618
H         -4.89267       -10.97459         0.99010
H         -2.60742       -10.86418         0.03221
H          0.00131       -11.07060         0.20977
H          2.50954       -11.09600         0.12181
H          4.98972       -11.03857         0.43511
H          7.07799        -9.77057         0.72597
H          8.26024        -7.63888         0.54678
H          9.50600        -5.50515         0.45664
H         10.74178        -3.34260         0.22330
