         260
 CSIRO Nanostructure Databank - Neutral Graphene Oxide Data Set
C         30.25840        31.61608        -0.73006
C         30.28816        32.82476        -1.01845
C         30.35206        36.02401        -1.35482
C         30.52455        37.10157        -1.96147
C         30.51910        40.76030        -1.86311
C         30.45895        41.76734        -1.08040
C         32.64986        28.74588        -0.23580
C         31.56403        29.33241        -0.27138
C         32.69586        31.42426        -0.87831
C         31.35162        30.65929        -0.86576
C         32.72228        32.94916        -0.86046
C         31.40605        33.76042        -0.61773
C         32.72807        35.92246        -0.91575
C         31.52854        35.04405        -1.43044
C         32.85238        37.29530        -1.48895
C         31.75909        37.83099        -2.12135
C         32.79603        40.40160        -1.14986
C         31.72600        40.05044        -2.00865
C         32.67686        41.61242        -0.41043
C         31.43251        42.31324        -0.25111
C         32.58352        43.79541         1.26761
C         31.57154        43.45240         0.62393
C         35.40380        27.25078         0.72477
C         35.29312        28.52853        -0.01787
C         34.02710        29.18536        -0.45550
C         35.27029        31.48828        -0.31032
C         34.02839        30.71330        -0.67490
C         35.16434        32.97257        -0.01791
C         33.98625        33.72042        -0.57320
C         35.25090        36.00012        -0.33435
C         33.95254        35.23619        -0.39586
C         35.30977        37.30805        -0.72183
C         34.17436        38.06458        -1.45264
C         35.29181        40.24248        -0.74568
C         33.97096        39.46752        -0.71765
C         35.27214        41.75681        -0.55102
C         33.92421        42.52634        -0.32450
C         35.20670        44.23724         1.14034
C         33.96927        43.42846         0.97142
C         35.33840        45.50740         1.86937
C         37.77496        27.33222         1.34410
C         36.45777        26.80538         1.20998
C         37.77109        28.63994         0.59047
C         36.50820        29.36074         0.25487
C         37.65609        31.53799         0.41935
C         36.48535        30.76823         0.19643
C         37.65041        33.01072         0.62305
C         36.35336        33.76061         0.44850
C         37.74263        35.96360         0.28804
C         36.36369        35.32258         0.52092
C         37.69912        37.49216         0.29035
C         36.64338        38.06281        -0.69560
C         37.75702        40.36682        -0.02450
C         36.55123        39.57087        -0.51378
C         37.83721        41.87694        -0.30648
C         36.53212        42.58434        -0.32494
C         37.73169        44.84705         0.39669
C         36.44960        43.97147         0.26653
C         37.77051        45.80340         1.60047
C         36.45692        46.04934         2.01430
C         40.30792        24.83023         2.33181
C         39.20445        25.43325         2.20185
C         40.21205        27.59785         2.00431
C         38.93648        26.77412         1.83869
C         40.23615        28.92365         1.29833
C         39.05078        29.38416         0.47452
C         40.21768        31.62266         0.05709
C         38.94858        30.85845         0.17505
C         40.25177        33.05233         0.51669
C         38.93888        33.80054         0.62944
C         40.24476        35.95496        -0.00768
C         38.91416        35.27223         0.34098
C         40.24165        37.45607         0.25411
C         39.00887        38.18600        -0.00309
C         40.29978        40.41282        -0.04368
C         39.04740        39.64058        -0.43771
C         40.28368        41.78351         0.08255
C         39.01211        42.53440        -0.00826
C         40.30516        44.68705         0.74633
C         39.05304        44.02964         0.21406
C         40.24695        45.96325         1.53133
C         38.95289        46.47173         1.93573
C         40.13109        48.36180         2.88098
C         39.09582        47.67464         2.66934
C         42.90904        24.92532         2.51503
C         41.58936        25.36586         2.43720
C         42.85106        27.67482         2.13446
C         41.52474        26.93092         2.58578
C         42.82301        29.00209         1.43049
C         41.54073        29.52000         0.85556
C         42.77247        31.62990        -0.01509
C         41.51115        30.85118         0.17181
C         42.79469        33.11179         0.02050
C         41.54742        33.79177         0.51579
C         42.83769        36.00206         0.43807
C         41.51942        35.28864         0.54017
C         42.82581        37.38284        -0.21884
C         41.55566        38.16746         0.16579
C         42.89262        40.28961         0.07894
C         41.56510        39.63255        -0.14680
C         42.87079        41.77128         0.32978
C         41.57217        42.53760         0.26046
C         42.73364        44.57764         1.12636
C         41.57576        43.92099         0.83513
C         42.77828        45.94356         1.78064
C         41.42524        46.63273         1.87573
C         42.72812        48.51366         2.48554
C         41.42262        47.93171         2.52414
C         43.97997        25.60023         2.52785
C         45.33333        27.50808         1.58050
C         44.18723        26.93428         2.09192
C         45.30064        28.75339         0.72037
C         44.10074        29.62432         0.89671
C         45.25373        31.58716        -0.44454
C         44.08322        30.98319         0.28551
C         45.35539        33.07278        -0.32024
C         44.14110        33.75571         0.21585
C         45.40190        35.96192         0.02703
C         44.15335        35.24194         0.37453
C         45.35445        37.34619         0.05074
C         44.11279        38.11575         0.11716
C         45.35351        40.16858         0.75041
C         44.08494        39.45758         0.41773
C         45.35468        41.65092         0.96059
C         44.04332        42.37979         1.04496
C         45.32783        44.63036         1.13893
C         44.03289        43.85164         1.26540
C         45.25105        46.14392         1.11783
C         43.91259        46.85604         1.14656
C         43.80295        48.10438         2.01452
C         47.76144        27.57826         1.21095
C         46.68804        27.05547         1.54646
C         47.90524        28.89627         0.57394
C         46.53749        29.36500         0.08000
C         47.77264        31.49806        -0.91883
C         46.49905        30.75571        -0.56394
C         47.78070        33.03353        -0.88351
C         46.54918        33.76083        -0.43495
C         47.88598        35.85900        -0.30121
C         46.63645        35.21281        -0.21350
C         47.96346        37.32550         0.00184
C         46.63510        38.07161         0.12936
C         47.34791        40.33725        -0.65153
C         46.52816        39.55452         0.08183
C         47.53438        41.77366        -0.37545
C         46.56500        42.44882         0.55379
C         47.84307        44.63578         0.15504
C         46.40884        43.93876         0.26039
C         47.40995        46.07743        -0.08930
C         46.39858        46.64439         0.32673
C         50.49989        29.00943         0.07702
C         49.14000        29.55995         0.07419
C         50.31142        31.41229        -1.32448
C         49.02101        30.60358        -1.06087
C         50.30988        32.99040        -1.21750
C         49.08553        33.74875        -0.81745
C         50.44208        35.79907        -0.35266
C         49.11822        35.10251        -0.52664
C         50.47442        37.28503        -0.72842
C         49.32146        38.11581        -0.11635
C         50.46688        40.13124        -1.20895
C         49.34698        39.36547        -1.00490
C         50.38300        41.47161        -1.78516
C         48.43000        42.61240        -1.19298
C         49.94221        44.34391        -1.47590
C         48.67415        43.93619        -0.91184
C         51.44914        29.40081        -0.62585
C         52.70985        31.50530        -1.47229
C         51.63628        30.68867        -1.21538
C         52.64407        32.78846        -1.41491
C         51.63483        33.62871        -1.03035
C         52.83923        35.88651        -0.91267
C         51.72777        34.99925        -0.53019
C         52.90726        37.10818        -0.73621
C         51.83611        38.08209        -0.53903
C         52.85807        40.49673        -1.25374
C         51.81090        39.56491        -0.77610
C         52.66990        41.70783        -1.47408
C         51.44790        42.38801        -1.81386
C         50.98634        43.74439        -1.78092
O         39.92854        44.77795        -0.67847
O         41.56531        29.61238        -0.59850
O         33.82104        43.34664        -1.38813
O         47.37736        37.60026         1.31829
O         36.31605        43.77212        -1.16396
O         44.33368        34.35485         1.52715
O         48.56784        29.94631         1.34049
O         45.71823        28.42259        -0.65034
O         50.18194        32.25375        -2.48382
O         51.92403        39.01242         0.54551
O         39.49070        31.31145        -1.15274
O         45.53614        40.73125         2.08210
O         33.59336        33.40087        -1.93582
O         44.37736        30.82979         1.70363
O         34.83345        28.45178        -1.39115
O         39.97168        28.86062         2.72289
O         42.40634        39.97300        -1.28257
O         40.97959        37.92858         1.47429
O         35.37435        41.19399        -1.86499
O         48.15518        39.73799        -1.62423
O         42.89810        28.92937         2.88254
O         42.72992        32.41486        -1.25250
O         35.34878        33.23734         1.40402
O         32.05383        30.87473        -2.09140
O         31.86389        38.97315        -2.89019
O         42.50346        42.49248        -0.88280
O         43.88244        42.91125         2.39528
O         41.04731        33.17179         1.74030
O         49.11919        41.94180        -2.23379
O         38.67701        28.49511        -0.60292
O         47.58772        32.27919        -2.12739
O         34.89990        43.08258         1.99649
O         34.98432        31.11900        -1.69124
O         47.80717        41.99783         1.09011
O         45.70866        45.43075         2.29314
O         51.19922        35.30676         0.78994
O         45.55615        30.88200        -1.67143
O         38.28576        33.44358         1.89062
O         32.95590        35.79852         0.52412
O         42.15337        35.86215         1.70574
O         49.67538        38.51508         1.20338
H         48.87854        38.42765         1.78156
O         34.63431        38.32144        -2.78981
H         33.90137        38.75309        -3.28725
O         37.21464        37.82441        -2.01438
H         36.56464        38.15870        -2.67985
O         48.47019        44.57220         1.40399
H         49.41072        44.82993         1.32123
O         37.67058        45.79588        -0.67959
H         37.31470        45.32919        -1.47259
O         37.64633        40.43125         1.42397
H         37.52626        39.51613         1.79464
O         43.12651        45.71967         3.15979
H         44.04830        45.37083         3.22300
O         41.45113        27.10928         3.99686
H         41.46763        28.07719         4.17738
O         48.78984        29.82006        -2.24183
H         48.64271        30.44526        -2.98657
O         40.37360        35.81068        -1.46197
H         39.58292        36.21222        -1.88794
O         45.83514        43.95275        -1.06496
H         45.83735        44.87408        -1.40680
O         42.81622        37.16340        -1.64522
H         41.99401        36.66528        -1.88125
O         37.31916        37.85678         1.64760
H         36.77477        37.13539         2.05487
O         35.99566        35.62871         1.88753
H         35.43307        34.88920         2.22345
O         43.55613        47.17764        -0.17998
H         44.27174        47.70969        -0.58842
O         50.21741        37.28309        -2.15217
H         50.94768        36.81209        -2.60889
O         31.72004        34.73966        -2.78502
H         31.19422        33.94875        -3.02866
O         39.06732        39.68209        -1.90250
H         39.99700        39.62651        -2.21196
O         31.29739        33.98966         0.77063
H         30.62867        34.68850         0.93025
O         33.73979        39.15731         0.66895
H         32.99644        38.52102         0.74160
