         244
 CSIRO Nanostructure Databank - Neutral Graphene Oxide Data Set
C          1.34947         1.91152        -0.59081
C          1.27725         3.35782        -0.49048
C          2.51579         1.24781        -0.43437
C          2.40789         4.12744        -0.47613
C          1.18472         6.29708        -0.09525
C          1.14002         7.64692         0.08582
C          2.40459         5.58617        -0.39382
C          2.28777         8.49940        -0.23148
C          1.13344        10.73129        -0.22146
C          1.20097        12.08486        -0.32489
C          2.29126         9.92844         0.29670
C          2.40062        12.82140        -0.02251
C          1.24528        15.03762        -0.30970
C          1.28744        16.41879        -0.34117
C          2.41520        14.26377        -0.04850
C          2.49656        17.12736        -0.12498
C          2.53253        18.56355        -0.08827
C          3.76133         2.02438        -0.07873
C          3.72419         3.41300        -0.72299
C          5.06048         1.32499        -0.39122
C          4.94450         4.20007        -0.33268
C          3.61277         6.29234        -0.42726
C          3.61791         7.76450        -0.43536
C          4.88986         5.61394        -0.32502
C          4.87861         8.49061        -0.22240
C          3.60216        10.66766         0.13418
C          3.60077        12.05003         0.19810
C          4.87181         9.88496         0.37640
C          4.86598        12.75474         0.52816
C          3.62793        14.98062         0.15969
C          3.68693        16.38619         0.10515
C          4.86020        14.24678         0.51654
C          4.93958        17.09646         0.38409
C          3.69079        19.24467         0.17281
C          4.93488        18.55863         0.40249
C          6.23817         2.03192        -0.42714
C          6.19871         3.50061        -0.30246
C          7.52391         1.37804        -0.44701
C          7.37501         4.20244        -0.15553
C          6.08721         6.37300        -0.25567
C          6.08146         7.79648        -0.28137
C          7.33178         5.66240         0.21304
C          7.33216         8.58746        -0.64531
C          6.15824        10.65591         0.14390
C          6.16571        12.04653         0.36808
C          7.37420         9.98730        -0.08574
C          7.38064        12.75976         0.38715
C          6.16691        14.95057         0.22209
C          6.11151        16.41286         0.58102
C          7.37300        14.21530         0.82050
C          7.37829        17.10680         1.02522
C          6.13235        19.24990         0.49351
C          7.39655        18.58223         0.64722
C          8.72758         2.06375        -0.32463
C          8.71599         3.57384        -0.42318
C          9.98138         1.39913        -0.22559
C          9.83401         4.22860         0.36833
C          8.61490         6.36259        -0.17020
C          8.63174         7.81446        -0.49558
C          9.88893         5.76035         0.40737
C          9.91030         8.54992        -0.30470
C          8.60586        10.68433        -0.06476
C          8.60489        12.08603         0.17284
C          9.87912         9.96451        -0.16951
C          9.84892        12.84669         0.13059
C          8.62853        14.97806         0.46936
C          8.61308        16.35027         0.56896
C          9.83648        14.22998         0.21281
C          9.88411        17.10806         0.55547
C          8.57546        19.28065         0.56530
C          9.88645        18.61919         0.59393
C         11.18752         2.06410         0.08298
C         11.11835         3.49681         0.47142
C         12.43025         1.41852         0.17844
C         12.36794         4.28955         0.51742
C         11.14576         6.31623        -0.30707
C         11.12399         7.83668        -0.17501
C         12.38912         5.62761         0.23741
C         12.31938         8.54262         0.05118
C         11.10116        10.67104        -0.08604
C         11.11450        12.13025        -0.04862
C         12.33521         9.95967        -0.03500
C         12.30128        12.80778        -0.20836
C         11.14588        14.98076         0.26726
C         11.02502        16.44854        -0.18358
C         12.27948        14.28844        -0.48537
C         12.33950        17.17178        -0.01027
C         11.11222        19.30139         0.18851
C         12.34141        18.59942         0.06709
C         13.62966         2.09084         0.55187
C         13.63903         3.57433         0.89981
C         14.84771         1.44650         0.66377
C         14.85259         4.22312         0.20357
C         13.63688         6.36817         0.30369
C         13.56615         7.83360         0.39318
C         14.85959         5.72761         0.36133
C         14.88344         8.59364         0.30168
C         13.59340        10.65809        -0.14193
C         13.57016        12.09082        -0.58564
C         14.81656        10.00868        -0.07492
C         14.82561        12.80977        -0.17515
C         13.55551        15.01388        -0.14822
C         13.55744        16.43721        -0.04887
C         14.75817        14.23581         0.09987
C         14.79064        17.16389        -0.08130
C         13.59022        19.28562         0.00274
C         14.81594        18.58585        -0.09010
C         16.07266         2.18095         0.96181
C         16.10709         3.56529         0.68905
C         17.22046         1.51882         1.42670
C         17.26557         4.44784         1.07543
C         16.11007         6.44121         0.24555
C         16.12636         7.84499         0.05444
C         17.34723         5.73970         0.28108
C         17.31919         8.50824        -0.29051
C         16.06869        10.69406        -0.24209
C         16.05246        12.13482        -0.18902
C         17.28499         9.97509        -0.35199
C         17.31171        12.84743        -0.18148
C         16.11077        15.00235         0.07025
C         16.03129        16.42457        -0.32790
C         17.34499        14.25772        -0.18311
C         17.35139        17.16868        -0.42737
C         16.07845        19.27897        -0.10728
C         17.31310        18.62246        -0.17363
C         18.51054         2.20268         1.53048
C         18.58054         3.69858         1.23629
C         19.73174         1.40144         1.35712
C         19.77845         4.21408         0.54525
C         18.54640         6.33113        -0.16192
C         18.53285         7.75226        -0.51139
C         19.74159         5.44465        -0.18419
C         19.68692         8.50242        -0.92314
C         18.48998        10.70751        -0.48996
C         18.52639        12.11601        -0.36620
C         19.67708        10.01100        -1.06693
C         19.78502        12.82675        -0.38596
C         18.57175        14.98084        -0.26098
C         18.59285        16.40443        -0.21723
C         19.80831        14.24933        -0.26673
C         19.80159        17.11168        -0.05521
C         18.55556        19.26812         0.02811
C         19.77567        18.55410         0.05422
C         20.88556         2.00225         0.99447
C         20.92390         3.37190         0.51183
C         22.08226         3.76999        -0.18362
C         20.87074         5.68514        -0.99989
C         20.86292         7.95138        -1.46767
C         22.03979         4.91122        -0.96642
C         22.06937         8.65767        -1.56374
C         21.00260        10.68886        -0.77139
C         21.01390        12.10353        -0.48828
C         22.15702         9.98368        -1.10130
C         22.22682        12.82682        -0.35520
C         21.04381        14.95511        -0.15720
C         21.04783        16.40065        -0.00710
C         22.24075        14.19957        -0.17983
C         22.23173        17.14007         0.15994
C         21.00776        19.23933         0.23178
C         22.20312        18.53854         0.28230
O         10.15685        17.73619         1.83626
O         15.47680        14.68907         1.32135
O         16.62861        16.72033        -1.63368
O         20.85355         6.65889        -1.99731
O         18.72396         3.22543         2.61189
O         10.18355         3.64857         1.65201
O          4.76040        13.52750         1.79692
O         14.24041         8.33538         1.59527
O          8.68931         6.76607        -1.56672
O          2.82629         8.35091        -1.56323
O         10.63642        16.54661        -1.57421
H         11.18508        15.90662        -2.09149
O         11.55346        14.98425         1.65521
H         10.86437        15.44144         2.18365
O         14.74333         3.95408        -1.22481
H         13.89274         4.33580        -1.53400
O          6.35156        14.88400        -1.22542
H          5.66833        15.44628        -1.64812
O          7.27330         5.71713         1.67887
H          6.46915         5.23346         1.96429
O          2.10420         9.76958         1.76427
H          1.95303        10.66681         2.13412
O          7.40366        17.08422         2.48629
H          8.31071        17.36656         2.75025
O         13.82808         3.70677         2.32667
H         12.99210         3.45242         2.76980
O         12.07715        14.38740        -1.93445
H         12.67690        13.70724        -2.34097
O          7.16991         8.81542        -2.08332
H          7.44899         7.98452        -2.53173
O          3.82415         3.20799        -2.16652
H          3.71603         4.08068        -2.59979
O          4.87688         9.58493         1.82431
H          3.93240         9.47540         2.10346
O         16.83650         4.89202         2.40412
H         17.25085         4.26354         3.04711
O          9.03275         3.90032        -1.81955
H          8.34205         3.49356        -2.38455
O         11.17174         5.96620        -1.70796
H         10.28073         6.17937        -2.08454
O         19.51068        10.22350        -2.54070
H         19.51492        11.19377        -2.69138
O         13.56327        12.08152        -2.09284
H         12.93854        11.37567        -2.36910
O          3.73798         2.24040         1.36807
H          3.72676         1.36245         1.80283
O          7.30120        14.22908         2.26172
H          6.40644        13.89260         2.51660
O          9.98533         6.19988         1.77137
H         10.02528         5.39363         2.33838
H          0.41447         1.36066        -0.77206
H          0.27772         3.81233        -0.43427
H          2.55030         0.14771        -0.46059
H          0.28084         5.71012         0.11998
H          0.24229         8.11440         0.51580
H          0.19556        10.20713        -0.45533
H          0.30720        12.62920        -0.66031
H          0.28080        14.53947        -0.47517
H          0.36337        16.98691        -0.52314
H          1.59694        19.11450        -0.26493
H          5.08190         0.22374        -0.42962
H          3.69044        20.34448         0.19374
H          7.53679         0.27656        -0.45294
H          6.13183        20.34500         0.37656
H         10.00174         0.30438        -0.34561
H          8.55110        20.36309         0.36091
H         12.49209         0.34658        -0.06712
H         11.10100        20.39658         0.08437
H         14.91206         0.35484         0.53639
H         13.59772        20.38535         0.03643
H         17.20667         0.42358         1.52705
H         16.06791        20.37271         0.01569
H         19.68914         0.32126         1.55830
H         18.57415        20.35639         0.19005
H         21.81027         1.41317         0.90231
H         22.97091         3.12369        -0.17942
H         22.88446         5.19283        -1.60795
H         22.95885         8.14860        -1.95642
H         23.14498        10.46196        -1.05616
H         23.18625        12.29349        -0.38827
H         23.21107        14.70371        -0.07675
H         23.20387        16.63090         0.20058
H         21.00285        20.33469         0.32495
H         23.14831        19.08302         0.41726
