         404
 CSIRO Nanostructure Databank - Neutral Graphene Oxide Data Set
C          1.09818         4.54380         2.86401
C         -0.09220         5.12548         2.43958
C          1.13813         6.84051         1.20535
C         -0.07736         6.25142         1.61313
C          1.18358         7.96127         0.27721
C          0.01457         8.35018        -0.41273
C          1.30425         9.92968        -1.68457
C          0.07672         9.30176        -1.41506
C          1.33120        12.14061        -2.35494
C          0.15944        12.86982        -2.61005
C          1.27779        14.86542        -1.80148
C          0.12338        14.21361        -2.28795
C          1.24483        16.29849        -1.57209
C          0.03086        17.01431        -1.58860
C          1.18850        19.13231        -1.26644
C          0.00417        18.39241        -1.43201
C          1.15567        20.58919        -1.18107
C         -0.05717        21.31603        -1.28836
C          1.11954        23.42750        -0.98360
C         -0.07636        22.69056        -1.14901
C          1.11290        24.86640        -0.82775
C         -0.09913        25.56930        -0.55381
C          1.07013        27.71085        -0.47643
C         -0.11320        26.92993        -0.36027
C          1.05313        29.12747        -0.28236
C         -0.13331        29.82871         0.10592
C          1.05811        31.97045         0.17281
C         -0.13424        31.18355         0.30290
C          1.05319        33.36497         0.38803
C         -0.10765        34.09078         0.83811
C          1.06179        36.34453         0.86956
C         -0.09943        35.41482         1.14104
C          1.17496        37.43585         1.90353
C          3.56351         4.51156         2.89961
C          2.33695         5.11433         2.49602
C          3.60962         6.90994         1.34748
C          2.35808         6.29027         1.68097
C          3.64510         8.08507         0.55571
C          2.42408         8.60563        -0.01618
C          3.77179        10.34013        -1.38948
C          2.46728         9.68039        -0.95264
C          3.73290        11.90518        -1.63434
C          2.47523        12.71409        -1.78169
C          3.71027        14.86607        -1.32841
C          2.48648        14.13354        -1.60844
C          3.69506        16.29129        -1.23129
C          2.45420        17.00582        -1.33633
C          3.65222        19.12805        -0.96631
C          2.42816        18.42740        -1.20169
C          3.59585        20.57272        -0.71164
C          2.35053        21.30723        -0.98529
C          3.59696        23.46619        -1.01324
C          2.35867        22.72946        -0.95943
C          3.56727        24.88810        -1.13065
C          2.31784        25.58675        -0.92512
C          3.46028        27.75533        -1.08324
C          2.30176        27.02700        -0.80096
C          3.42738        29.21846        -1.03070
C          2.24055        29.89474        -0.47222
C          3.54198        31.97348        -0.11647
C          2.27155        31.27831        -0.20768
C          3.57403        33.32388         0.31852
C          2.32353        34.10660         0.28301
C          3.63256        36.08869         1.22880
C          2.37427        35.58372         0.64055
C          3.62953        37.30072         1.97559
C          2.35546        37.92288         2.32313
C          6.01703         4.43302         2.91449
C          4.79019         5.08950         2.58792
C          6.04385         6.99491         1.63028
C          4.82396         6.34490         1.85505
C          6.09081         8.18424         0.86197
C          4.89540         8.72746         0.27702
C          6.18272        10.59114        -0.64657
C          4.94474         9.92249        -0.50114
C          6.22874        11.99201        -1.00998
C          4.97701        12.70089        -1.36792
C          6.13975        14.89482        -0.98056
C          4.94440        14.18089        -1.19748
C          6.14452        16.31200        -0.93193
C          4.91141        17.01642        -1.04247
C          6.12871        19.18934        -0.83200
C          4.88337        18.45234        -0.92881
C          6.15544        20.60094        -0.86079
C          4.90960        21.35696        -0.68289
C          6.03719        23.50127        -1.26135
C          4.85796        22.79981        -1.01314
C          6.00753        24.91056        -1.51296
C          4.75907        25.59663        -1.41955
C          5.98155        27.85060        -1.64869
C          4.67461        27.06932        -1.56325
C          6.04747        29.21144        -1.06422
C          4.78322        29.97520        -0.97033
C          5.98228        31.87106         0.10135
C          4.76729        31.27750        -0.29401
C          5.98487        33.19331         0.55525
C          4.79261        33.95506         0.62721
C          6.03048        35.87728         1.63682
C          4.83093        35.33165         1.13446
C          6.06434        37.17823         2.21912
C          4.82924        37.85297         2.42475
C          8.46732         4.36815         2.95086
C          7.25528         5.03921         2.70008
C          8.57735         6.95776         1.73550
C          7.27612         6.51449         2.35825
C          8.59547         8.18189         0.99540
C          7.35833         8.80230         0.59025
C          8.66029        10.54887        -0.60312
C          7.38202         9.98279        -0.16870
C          8.67019        11.99087        -1.10438
C          7.40357        12.71056        -0.99621
C          8.69265        14.89541        -0.81548
C          7.39526        14.15649        -0.57859
C          8.65961        16.34249        -0.71563
C          7.38519        17.05128        -0.76948
C          8.59372        19.23061        -0.52831
C          7.35809        18.45026        -0.74002
C          8.58640        20.66918        -0.84812
C          7.38657        21.33958        -0.98016
C          8.53556        23.50270        -1.70376
C          7.37222        22.86367        -0.95385
C          8.48724        24.90138        -1.89856
C          7.24150        25.59998        -1.76746
C          8.53621        27.76538        -1.36893
C          7.25992        27.07595        -1.78125
C          8.50570        29.08781        -0.72376
C          7.22928        29.76586        -0.61586
C          8.53496        31.76169         0.17758
C          7.22227        31.01781         0.22993
C          8.55208        33.19100         0.49614
C          7.26962        33.90602         0.74677
C          8.56466        35.80624         1.76667
C          7.27278        35.03229         1.74714
C          8.55384        37.11553         2.33871
C          7.30367        37.74744         2.61592
C         10.94383         4.30906         2.96920
C          9.72750         4.98603         2.72445
C         11.05067         6.94908         1.92531
C          9.74396         6.28421         2.09784
C         11.08071         8.00647         0.86970
C          9.83961         8.75880         0.59416
C         11.16199        10.64280        -0.35705
C          9.91349         9.94613        -0.13809
C         11.17809        12.02401        -0.70010
C          9.97378        12.74812        -1.27013
C         11.15363        14.88027        -0.72793
C          9.90069        14.20668        -0.87254
C         11.11985        16.31372        -0.45780
C          9.86116        17.03899        -0.61933
C         11.17881        19.21591        -0.83572
C          9.92183        18.50140        -0.45698
C         11.14237        20.59057        -1.15138
C          9.88559        21.36320        -0.97543
C         11.01693        23.11506        -2.34383
C          9.82275        22.76706        -1.57799
C         10.96202        25.21312        -2.39067
C          9.72732        25.70333        -1.93795
C         10.99509        27.57618        -0.98509
C          9.77417        26.97327        -1.31804
C         10.96517        28.83426        -0.15863
C          9.69263        29.65249        -0.29121
C         10.99560        31.69154         0.37728
C          9.72027        31.04514         0.12336
C         10.98744        33.07964         0.76847
C          9.81314        33.80721         0.92958
C         11.00119        35.86632         1.67301
C          9.78784        35.17516         1.42592
C         11.01877        37.12870         2.34561
C          9.78204        37.75156         2.64145
C         13.34608         3.98837         2.84784
C         12.24436         4.86185         2.80009
C         13.60702         6.92412         1.91793
C         12.32593         6.31582         2.41768
C         13.62201         8.04631         1.03289
C         12.39194         8.59632         0.44131
C         13.61212        10.67136        -0.17970
C         12.39118         9.98908        -0.05093
C         13.62269        12.05738        -0.52410
C         12.38903        12.74983        -0.67722
C         13.64425        14.90637        -0.68802
C         12.38871        14.19664        -0.72934
C         13.67755        16.33481        -0.75970
C         12.44651        17.09361        -0.52107
C         13.60333        19.17264        -1.28462
C         12.40224        18.51785        -0.89315
C         13.55712        20.54076        -1.62264
C         12.34083        21.25933        -1.54400
C         13.47210        23.40870        -2.44014
C         12.26983        22.60292        -2.09441
C         13.46626        24.94961        -2.25972
C         12.21374        25.69632        -1.96561
C         13.49437        27.61420        -1.04769
C         12.23015        26.93283        -1.26265
C         13.46757        28.97996        -0.56916
C         12.24032        29.63366        -0.25888
C         13.49491        31.60715         0.57479
C         12.21036        30.97783         0.18900
C         13.52050        33.05707         0.97262
C         12.26079        33.81585         0.81770
C         13.53720        35.83434         1.74469
C         12.27224        35.27633         1.26047
C         13.51512        37.09743         2.41093
C         12.26699        37.73010         2.67158
C         15.87913         3.88007         2.44289
C         14.72015         4.41340         2.94071
C         16.09664         6.77153         1.71549
C         14.81857         6.51623         2.46522
C         16.06159         8.23674         1.33396
C         14.84371         8.74094         0.79842
C         16.08694        10.64059        -0.14709
C         14.85446        10.02096         0.16173
C         16.10032        11.97232        -0.78078
C         14.85039        12.75662        -0.69539
C         16.15233        14.86287        -0.64035
C         14.86219        14.15770        -0.73775
C         16.14861        16.39033        -0.77862
C         14.86494        17.06379        -0.99640
C         16.09866        19.13436        -1.55038
C         14.86794        18.45324        -1.29971
C         16.09201        20.54128        -1.83331
C         14.79717        21.20253        -2.08487
C         16.04064        23.45130        -2.17876
C         14.79232        22.69227        -2.38876
C         15.99351        24.87134        -1.94431
C         14.74584        25.59098        -1.85523
C         15.97717        27.67905        -1.34653
C         14.69988        26.93255        -1.39276
C         15.95561        29.10350        -0.88511
C         14.69666        29.72731        -0.43497
C         15.98687        31.78284         0.17436
C         14.75405        31.00342         0.11625
C         15.98645        33.17860         0.63055
C         14.77992        33.82128         0.97199
C         15.99668        35.79270         1.80389
C         14.76083        35.15852         1.47591
C         15.98372        37.07677         2.45507
C         14.75000        37.69600         2.76660
C         18.35273         3.70350         2.08003
C         17.20857         4.56700         2.47220
C         18.69818         6.50522         1.63465
C         17.37814         6.06999         2.22238
C         19.02505         7.85801         1.45115
C         17.18262         9.04825         1.25161
C         18.63515        10.58024        -0.12566
C         17.29607        10.09112         0.31647
C         18.69161        12.03586        -0.39718
C         17.44264        12.69436        -0.81218
C         18.63696        14.83962        -0.87406
C         17.42209        14.15376        -0.80734
C         18.59717        16.24834        -1.33606
C         17.37581        17.04524        -1.22695
C         18.59586        19.10191        -1.79893
C         17.35075        18.40368        -1.55442
C         18.53360        20.52313        -2.18851
C         17.26247        21.27396        -2.07597
C         18.50986        23.44750        -2.05176
C         17.25616        22.72023        -2.14186
C         18.48816        24.86344        -1.85177
C         17.24063        25.55889        -1.72050
C         18.47175        27.63191        -1.19348
C         17.26192        26.94257        -1.38514
C         18.50414        28.99066        -0.59798
C         17.21177        29.70294        -0.34295
C         18.46208        31.88721        -0.20146
C         17.19157        31.16183        -0.12366
C         18.47019        33.34844         0.31844
C         17.20330        33.88916         0.82187
C         18.47232        35.78840         1.80457
C         17.22227        35.14912         1.48366
C         18.44934        37.05459         2.47570
C         17.21851        37.67790         2.78541
C         19.45264         4.16286         1.43884
C         20.75430         6.05242         0.41128
C         19.64909         5.57543         1.15582
C         20.89499         7.40018         0.06386
C         20.01039         8.36218         0.59147
C         21.12951        10.67690         0.21503
C         19.94131         9.80308         0.09434
C         21.09686        12.01574        -0.01872
C         19.88734        12.74335        -0.38269
C         21.08121        14.95432        -0.70949
C         19.88512        14.16448        -0.71164
C         21.10642        16.29789        -0.98419
C         19.93085        17.00937        -1.49542
C         21.03294        19.27361        -1.50929
C         19.83663        18.48343        -1.61287
C         21.03646        20.61853        -1.70706
C         19.84617        21.31219        -2.20528
C         20.95581        23.52328        -2.07437
C         19.76145        22.78612        -2.09756
C         20.93852        24.89897        -1.93018
C         19.71962        25.58575        -1.76438
C         20.91329        27.74283        -1.33926
C         19.71813        26.99502        -1.44505
C         20.92946        29.09017        -0.97194
C         19.76184        29.76742        -0.60387
C         20.91485        31.89552        -0.02809
C         19.74698        31.16245        -0.25798
C         20.91367        33.21014         0.48512
C         19.74701        33.91066         0.77698
C         20.91399        35.82072         1.88551
C         19.72455        35.17197         1.49978
C         20.88510        37.05800         2.54409
C         19.67911        37.67486         2.83397
O         11.70177         7.57734        -0.39694
O          9.26986        18.97489         0.76845
O         12.34215        34.87228        -0.16995
O          8.62977        10.87682        -2.05005
O         15.99435        28.81595        -2.32021
O          4.61896        12.26792        -2.75716
O         14.79309        21.70619        -3.47447
O          7.91163        34.12397        -0.53543
O         17.83792        28.96236         0.75833
O         19.27617        16.36199        -2.63087
O         17.42658         5.53521         3.55994
O         14.82567         5.69771         3.57218
O         19.28052         9.81250        -1.21547
O          4.21557        20.99286         0.55479
O         11.83248        16.75257         0.76166
O          1.32825        10.80979        -2.77430
O          8.09064        27.74511        -2.78793
O         18.24577         8.81136         2.11567
O          3.98531        29.92580        -2.18409
O         13.45252        24.30507        -3.57773
O         16.82381        12.08640        -2.04079
O         11.60391         7.28942         3.25373
O         16.22597        15.75463         0.54763
O          5.16003        27.64659        -2.83304
O         10.13100        22.53857        -0.12335
O         19.26858        20.78678        -3.43578
O         18.42151        33.03420        -1.11208
O         13.48517        32.02033         2.01082
O          2.44335        35.16247        -0.76327
O         10.89712        24.13145        -3.28874
O          7.31414        14.07773         0.90152
H          7.36893        14.99466         1.24879
O          7.19289        34.35888         3.05725
H          7.12787        35.05749         3.74291
O          7.14731        30.51340         1.62292
H          7.93351        29.94492         1.77401
O          4.07648         9.74855        -2.67632
H          4.63254        10.40191        -3.16468
O          7.23697         7.21338         3.65714
H          8.04048         6.94981         4.15527
O         10.93742        28.36029         1.24829
H         11.24339        29.09999         1.81651
O          0.71962        37.02936        -0.37118
H          1.07804        36.46539        -1.09744
O         15.92032         6.07827         0.41500
H         15.19411         6.51854        -0.07905
O          7.58789        23.21683         0.45882
H          8.51722        22.95491         0.67955
O         10.22878        12.80238        -2.71145
H          9.94847        11.92883        -3.07267
H          1.08414         3.64315         3.49406
H         -1.05422         4.68934         2.74274
H         -1.03750         6.67541         1.29085
H         -0.94295         7.85453        -0.20870
H         -0.80742         9.55510        -2.01372
H         -0.70335        12.36996        -3.06765
H         -0.79700        14.77860        -2.47934
H         -0.92442        16.49006        -1.71759
H         -0.96928        18.89864        -1.45115
H         -1.00697        20.79214        -1.45507
H         -1.04045        23.21267        -1.20815
H         -1.04042        25.01272        -0.45627
H         -1.06929        27.41545        -0.12582
H         -1.07349        29.27877         0.24295
H         -1.07758        31.67131         0.58165
H         -1.04538        33.53582         0.98620
H         -1.03506        35.88803         1.47586
H          0.23717        37.92007         2.21515
H          3.53334         3.56950         3.46724
H          2.38648        38.78380         3.00841
H          5.97568         3.40872         3.31654
H          4.82147        38.81686         2.95441
H          8.43868         3.32757         3.30921
H          7.30615        38.74429         3.08055
H         10.88101         3.26717         3.32011
H          9.77492        38.74344         3.11603
H         13.13246         2.90774         2.88099
H         12.26675        38.71449         3.16196
H         15.83669         2.91876         1.91095
H         14.75068        38.67264         3.27171
H         18.23430         2.61861         2.22823
H         17.22479        38.65000         3.30014
H         20.23178         3.45773         1.11270
H         21.48596         5.32434         0.03227
H         21.70368         7.70591        -0.61458
H         22.06841        10.21760         0.56015
H         22.03097        12.58318         0.10076
H         22.02291        14.47828        -0.40109
H         22.03768        16.85419        -0.80799
H         21.96237        18.78202        -1.19085
H         21.93961        21.19453        -1.46383
H         21.92083        23.01243        -2.18526
H         21.89335        25.43829        -1.91780
H         21.87550        27.27396        -1.58089
H         21.89231        29.61879        -0.97982
H         21.89041        31.40181        -0.13693
H         21.88882        33.64658         0.74173
H         21.88794        35.36602         1.66108
H         21.83118        37.54056         2.82630
H         19.65920        38.64643         3.34778
