         280
 CSIRO Nanostructure Databank - Neutral Graphene Oxide Data Set
C         30.26442        31.68291         0.96008
C         30.24372        32.89580         0.66722
C         30.34958        36.00972         0.25387
C         30.37098        37.25700         0.05953
C         30.32522        40.32326        -0.54629
C         30.38813        41.55807        -0.70751
C         32.69014        28.89914         1.34814
C         31.46815        29.38438         1.31570
C         32.63107        31.48705         0.87690
C         31.30988        30.72652         1.10713
C         32.67339        32.96587         0.63315
C         31.42453        33.79626         0.97072
C         32.68428        35.87741         0.19779
C         31.46712        35.16889         0.36953
C         32.71194        37.29185        -0.00702
C         31.50583        38.06360        -0.06061
C         32.72208        40.20832        -0.57483
C         31.48664        39.55729         0.06316
C         32.77716        41.70986        -0.75669
C         31.51413        42.41678        -0.87812
C         32.80011        44.36131        -1.20085
C         31.67961        43.79963        -1.08714
C         35.35645        27.21475         0.70660
C         35.29868        28.59218         1.38916
C         33.96437        29.30202         1.28374
C         35.09192        31.52165         0.74131
C         33.91704        30.87236         1.41765
C         35.16087        32.95675         0.57825
C         33.98350        33.69356         0.60760
C         35.25218        35.88374         0.26759
C         33.97731        35.09273         0.00507
C         35.20744        37.34030         0.14470
C         33.99452        37.99152        -0.03618
C         35.20025        40.28076        -0.11181
C         33.99048        39.42351        -0.44229
C         35.28028        41.48566        -1.08000
C         34.01566        42.35572        -0.93311
C         35.31287        44.48857        -1.25178
C         34.09761        43.79201        -1.15167
C         35.62976        45.83268        -1.55585
C         37.75278        27.29245         0.01577
C         36.44575        26.78787         0.28633
C         37.73051        28.76497         0.34307
C         36.37015        29.37024         0.61931
C         37.92995        31.83162        -0.15023
C         36.06935        30.65426         0.20673
C         37.80626        33.07512         0.37615
C         36.48139        33.72746         0.76710
C         37.73636        35.92797         0.54598
C         36.43262        35.20162         0.37666
C         37.73247        37.43059         0.56284
C         36.45126        38.12564         0.23566
C         37.68197        40.28974         0.42396
C         36.47428        39.47367         0.00878
C         37.86722        41.56424        -0.45468
C         36.59995        42.28482        -0.94041
C         37.86068        44.58117        -0.83273
C         36.62102        43.76348        -1.13134
C         38.02760        45.87823        -1.60901
C         36.68590        46.43699        -1.85894
C         40.07776        24.62895        -1.17454
C         39.12628        25.29556        -0.74323
C         40.18543        27.38961        -0.48507
C         38.91612        26.65807        -0.32793
C         40.22167        28.75624        -0.41637
C         39.02261        29.52806         0.00150
C         40.32782        31.66459        -0.00338
C         39.12003        31.01491        -0.10900
C         40.36219        33.06992         0.32633
C         39.08556        33.80676         0.73483
C         40.31020        35.98542         0.29092
C         38.99938        35.20934         0.06740
C         40.27345        37.44863         0.58895
C         39.02448        38.16255         0.48168
C         40.23886        40.28511         0.34504
C         39.02565        39.57085         0.37314
C         40.33239        41.75681        -0.00767
C         38.98688        42.47016         0.22396
C         40.40435        44.63869        -0.25427
C         39.07306        43.93494        -0.24276
C         40.46321        45.95556        -0.65747
C         39.34413        46.58820        -1.46700
C         40.63339        48.56551        -1.49832
C         39.47356        48.05427        -1.56943
C         42.71086        24.68965        -1.51056
C         41.34872        25.33301        -1.62007
C         42.75190        27.32275        -0.60739
C         41.45226        26.53578        -0.55210
C         42.69618        28.71625        -0.02631
C         41.53583        29.47199        -0.72297
C         42.86658        31.64310         0.00790
C         41.58091        30.96928        -0.35879
C         42.85579        33.05318         0.48819
C         41.56407        33.72525         0.50868
C         42.75045        35.89674         1.16174
C         41.56453        35.20957         0.55914
C         42.72637        37.39417         1.13546
C         41.45938        38.12486         0.82050
C         42.73498        40.32546         1.04453
C         41.38662        39.61211         1.07898
C         42.81748        41.72052         0.41980
C         41.48783        42.49580         0.78389
C         42.72648        44.65998         0.63939
C         41.56991        43.97381         0.36581
C         42.91529        46.05720         0.04624
C         41.57661        46.82844        -0.06614
C         43.12374        48.61821        -0.69477
C         41.80950        48.21628        -0.86740
C         43.74409        25.36492        -1.38372
C         45.20558        27.38081        -0.62249
C         43.95478        26.70648        -0.87499
C         45.24071        28.68819        -0.12492
C         44.02381        29.45072        -0.03590
C         45.33987        31.52874         0.29321
C         44.08213        30.81923         0.18922
C         45.37723        32.99152         0.70473
C         44.03605        33.70223         0.73886
C         45.27453        35.91809         0.66013
C         44.09473        35.13320         1.25139
C         45.20671        37.38846         0.77183
C         44.04395        38.07904         1.01772
C         45.22688        40.33753         0.66527
C         44.01872        39.56343         1.08938
C         45.23320        41.79983         0.93932
C         44.05788        42.47398         0.85676
C         45.25212        44.67972         1.29494
C         43.95377        43.94085         1.11586
C         45.24911        46.21723         1.29194
C         44.01177        46.92542         0.72100
C         44.01352        48.25663         0.13501
C         47.61037        27.30908        -0.34241
C         46.53559        26.85018        -0.75630
C         47.84907        28.62989         0.23851
C         46.48068        29.34688         0.47586
C         47.76620        31.57304        -0.28916
C         46.52769        30.84942         0.20539
C         47.77810        33.09303        -0.05346
C         46.41122        33.78663        -0.14291
C         47.63732        36.00361        -0.22858
C         46.40364        35.26630         0.23780
C         47.75390        37.41368         0.32982
C         46.50846        38.12590         0.73183
C         47.77539        40.38893         0.54785
C         46.50458        39.61200         0.55695
C         47.79219        41.70852         0.86018
C         46.54722        42.45695         1.36817
C         47.84430        44.64889         1.11511
C         46.51665        43.92261         0.81223
C         47.56995        45.98295         1.17150
C         46.58200        46.79074         1.24759
C         50.38007        28.87460        -0.46461
C         49.12126        29.41890         0.12030
C         50.28196        31.66030        -0.44996
C         49.08105        30.90000         0.06034
C         50.27583        33.08013         0.16191
C         48.94293        33.78738        -0.06149
C         50.07611        35.97516        -0.73774
C         48.97720        35.29252         0.12184
C         49.97000        37.50649        -0.99752
C         49.06110        38.18883         0.05517
C         50.23434        40.36891        -0.10542
C         48.86172        39.72560        -0.28696
C         50.33313        41.71142         0.53258
C         49.03183        42.53188         0.52150
C         50.39563        44.50656         0.85713
C         49.10344        43.86593         1.32352
C         51.44790        29.53410        -0.32156
C         52.72360        31.78423        -0.06823
C         51.68520        30.91827        -0.25968
C         52.60615        33.07667        -0.23531
C         51.52524        33.87989        -0.33216
C         52.56947        36.09458        -1.13339
C         51.39085        35.22671        -0.89574
C         52.33529        37.34745        -1.15758
C         51.35872        38.27442        -0.93672
C         52.53938        40.57609        -0.73734
C         51.32639        39.77079        -1.06091
C         52.62830        41.75797        -0.38612
C         51.89149        42.54062         0.63800
C         51.41843        43.92499         0.49279
O         43.44096        40.15633         2.29903
O         38.66794        29.14421         1.40400
O         38.99267        45.84773        -2.67212
O         45.72141        39.94973        -0.67386
O         44.53618        44.21461         2.46164
O         38.12793        44.75533         0.57262
O         33.29138        39.54353        -1.73006
O         50.48595        40.53206         1.33604
O         41.26286        42.41663         2.14786
O         36.87503        42.88071        -2.28009
O         42.35076        31.67512        -1.39857
O         42.49900        36.61776         2.40070
O         37.77078        36.61573         1.82172
O         36.86378        31.21397        -0.79829
O         47.41381        37.57047         1.74057
O         32.62543        32.01267        -0.48755
O         48.72427        28.76291         1.37474
O         41.26592        35.73367        -0.80427
O         44.23147        46.79539         2.11853
O         50.38003        35.27018        -1.97341
O         46.35246        43.87234        -0.61446
H         47.22174        43.59518        -1.01066
O         42.99399        41.47367        -0.98596
H         43.09967        42.32589        -1.45678
O         47.58489        31.47816        -1.76979
H         48.45858        31.74750        -2.16382
O         35.65355        28.45563         2.75646
H         35.00834        27.86222         3.19354
O         40.68895        41.94379        -1.39174
H         40.13363        41.32182        -1.92120
O         41.73059        29.34631        -2.14208
H         42.18722        30.16501        -2.45113
O         52.38231        42.32456         1.91009
H         52.27469        41.37336         2.13159
O         46.03368        33.74531        -1.54703
H         46.35666        32.87607        -1.90675
O         45.92149        32.93962         2.04788
H         45.53979        33.67931         2.58093
O         46.60698        42.47867         2.79628
H         45.78117        42.90757         3.12856
O         47.52467        36.09907        -1.66512
H         47.01650        35.30814        -1.97865
O         35.28824        40.93783        -2.40329
H         35.49090        41.66445        -3.03308
O         49.49262        37.70457        -2.32225
H         49.68939        36.88261        -2.83195
O         38.75281        42.56820         1.63519
H         39.64860        42.71685         2.08482
O         50.95505        40.06865        -2.40830
H         50.23323        39.44878        -2.68004
O         39.19427        34.05225         2.15938
H         39.25494        33.19006         2.62235
O         38.82250        35.03454        -1.34368
H         39.71949        34.98987        -1.75095
O         31.47444        33.98844         2.39166
H         30.69904        34.52286         2.66262
O         34.01677        34.83509        -1.43944
H         33.32216        34.17603        -1.65782
O         38.38900        40.96516        -1.67321
H         38.05955        41.49879        -2.43551
O         41.16382        25.84241        -2.90096
H         41.09238        25.11043        -3.54608
O         48.86145        42.91862        -0.87544
H         48.90465        42.10534        -1.43176
O         50.39479        32.96615         1.59552
H         51.22344        32.48099         1.80339
O         33.93633        31.17544         2.82209
H         34.79722        30.89041         3.19539
O         46.23830        29.23440         1.90796
H         47.10790        29.34549         2.35844
O         34.88885        40.82547         1.19742
H         35.69611        40.75963         1.77306
O         31.52667        39.87373         1.45412
H         30.79046        39.41348         1.90801
O         43.41730        45.83001        -1.28977
H         42.69987        45.45377        -1.84247
O         37.40835        40.49161         1.82843
H         38.06195        41.14369         2.19656
O         50.21274        31.82168        -1.89624
H         50.44075        30.95794        -2.30455
O         44.40682        35.03297         2.66942
H         43.93341        35.77635         3.12285
O         49.26004        35.53202         1.50970
H         49.66412        34.72054         1.89918
O         36.53167        33.76896         2.23460
H         37.28641        34.35146         2.49609
O         40.88339        39.81469         2.44006
H         41.03998        40.79739         2.62681
O         41.17331        47.18603         1.24430
H         40.24693        47.50382         1.23612
O         48.43271        39.93091        -1.64600
H         47.46910        39.73803        -1.71304
O         41.50809        25.88247         0.73878
H         41.56673        26.59151         1.41890
O         49.84785        38.11557         1.24790
H         49.23807        38.03152         2.01765
O         49.25672        43.53574         2.69412
H         49.24038        44.35253         3.23361
O         42.32647        28.59061         1.38162
H         43.14259        28.40625         1.89561
