         204
 CSIRO Nanostructure Databank - Neutral Graphene Oxide Data Set
C        -10.92095         0.64517         1.13069
C         -9.75331         1.40729         0.73878
C         -8.56612         0.68874         0.33092
C         -7.37860         1.38401         0.00207
C         -6.15076         0.70084        -0.19201
C         -4.93162         1.42052        -0.37927
C         -3.70670         0.73106        -0.61241
C         -2.48431         1.41319        -0.68982
C         -1.23141         0.68192        -0.79530
C          0.01567         1.41642        -0.81551
C          1.24921         0.68968        -0.95539
C          2.49365         1.47708        -1.12433
C          3.80078         0.74705        -1.12738
C          5.03145         1.46536        -0.71688
C          6.19004         0.75923        -0.47134
C          7.47100         1.47537        -0.37234
C          8.72960         0.70564        -0.02642
C          9.86571         1.46117         0.53895
C         11.00599         0.68985         0.98134
C         -9.75907         2.79016         0.85730
C         -8.68572         3.60896         0.31784
C         -7.39080         2.84262        -0.15159
C         -6.12490         3.57550        -0.12887
C         -4.91389         2.85416        -0.27425
C         -3.67697         3.55625        -0.38388
C         -2.45600         2.84502        -0.57520
C         -1.22182         3.55201        -0.64628
C          0.01849         2.83716        -0.76073
C          1.26266         3.58192        -0.73480
C          2.49430         2.91612        -0.79348
C          3.74570         3.60064        -0.62005
C          4.98630         2.90649        -0.59233
C          6.19815         3.60639        -0.24156
C          7.43091         2.91895        -0.11920
C          8.61986         3.58913         0.27895
C          9.81699         2.83631         0.58520
C         -8.49968         4.99938         0.72066
C         -7.32112         5.68137         0.47440
C         -6.11630         4.98827         0.02996
C         -4.90099         5.69647        -0.10401
C         -3.67683         4.98597        -0.35321
C         -2.45874         5.68723        -0.52386
C         -1.23078         4.98786        -0.61066
C          0.01880         5.69949        -0.61312
C          1.23644         5.02226        -0.61931
C          2.49554         5.73847        -0.44537
C          3.72094         5.01926        -0.37988
C          4.93439         5.72014        -0.09901
C          6.16821         5.01077        -0.00536
C          7.37505         5.70356         0.33531
C          8.57839         4.98342         0.47872
C         -7.23072         7.08552         0.77047
C         -6.06649         7.79919         0.57108
C         -4.86925         7.13003         0.09846
C         -3.70792         7.85339        -0.14158
C         -2.56640         7.15844        -0.85994
C         -1.24426         7.91555        -0.75317
C         -0.00444         7.17280        -0.28016
C          1.27579         7.92500        -0.69779
C          2.50849         7.14540        -0.30041
C          3.69418         7.83723         0.00850
C          4.91451         7.12407         0.13202
C          6.13411         7.81730         0.45656
C          7.32722         7.11373         0.55565
C         -6.01219         9.22506         0.79792
C         -4.87463         9.92995         0.56315
C         -3.66756         9.28100         0.08825
C         -2.51376        10.02080        -0.09442
C         -1.23831         9.37831        -0.43262
C          0.03552         9.99019         0.00037
C          1.23139         9.33499        -0.12285
C          2.47200         9.96691         0.23349
C          3.66753         9.27288         0.25245
C          4.90742         9.93258         0.58729
C          6.07933         9.24483         0.67909
C        -10.93891        -0.71389         1.08336
C         -9.75910        -1.46756         0.72735
C         -8.55226        -0.74835         0.40444
C         -7.35961        -1.46256         0.17427
C         -6.13189        -0.74699        -0.12168
C         -4.94972        -1.43013        -0.33396
C         -3.76620        -0.73310        -0.94684
C         -2.45406        -1.46493        -0.77546
C         -1.22614        -0.71843        -0.79667
C          0.05448        -1.45347        -0.48142
C          1.29603        -0.70810        -0.90257
C          2.51164        -1.46489        -0.98054
C          3.79331        -0.75162        -1.12547
C          5.04491        -1.48165        -0.74289
C          6.12846        -0.68834        -0.05522
C          7.43542        -1.43669         0.04486
C          8.63734        -0.75018         0.23775
C          9.80705        -1.44358         0.66396
C         10.99297        -0.67428         0.99488
C         -9.76885        -2.85892         0.72782
C         -8.58901        -3.60565         0.44646
C         -7.36553        -2.89607         0.19145
C         -6.17327        -3.62605        -0.01532
C         -4.90267        -2.88648        -0.10986
C         -3.64534        -3.63127        -0.40653
C         -2.44616        -2.84039        -0.77302
C         -1.21114        -3.58043        -1.08637
C          0.07783        -2.90399        -0.89071
C          1.27257        -3.60295        -0.88191
C          2.52226        -2.86460        -0.81659
C          3.74569        -3.59864        -0.57946
C          4.96211        -2.90965        -0.39403
C          6.14443        -3.57445         0.01044
C          7.37969        -2.84651         0.20546
C          8.56295        -3.55397         0.57350
C          9.75598        -2.83442         0.82136
C         -8.57197        -5.01327         0.46531
C         -7.38507        -5.73840         0.23331
C         -6.15399        -5.03593        -0.01397
C         -4.94509        -5.78189        -0.28559
C         -3.69394        -5.10013        -0.59632
C         -2.52308        -5.80306        -0.85017
C         -1.26435        -5.07492        -1.19145
C          0.04736        -5.80886        -1.13803
C          1.30521        -5.05857        -0.90039
C          2.47943        -5.75324        -0.62364
C          3.72762        -5.02405        -0.43136
C          4.92097        -5.70083        -0.11153
C          6.11945        -4.98772         0.14718
C          7.32452        -5.67999         0.55161
C          8.49781        -4.97239         0.75689
C         -7.37156        -7.16061         0.27950
C         -6.19909        -7.87227         0.04784
C         -4.99036        -7.17758        -0.27525
C         -3.79994        -7.98859        -0.72747
C         -2.48997        -7.23825        -0.67994
C         -1.29959        -7.92599        -0.52650
C          0.00585        -7.27470        -0.78996
C          1.23744        -7.90123        -0.28885
C          2.45999        -7.19035        -0.33726
C          3.65035        -7.86718         0.02130
C          4.98366        -7.20643        -0.22350
C          6.11971        -7.82291         0.55948
C          7.24868        -7.09902         0.82121
C         -6.17100        -9.31782         0.19759
C         -5.00141       -10.01210         0.18665
C         -3.74054        -9.35622        -0.08322
C         -2.54407        -9.98227         0.12934
C         -1.28062        -9.30858        -0.08211
C         -0.08458        -9.93006         0.22120
C          1.18504        -9.24736         0.15424
C          2.37762        -9.88919         0.53312
C          3.60787        -9.21457         0.44956
C          4.83451        -9.88322         0.85190
C          6.01628        -9.21608         0.92753
O         -1.10035         8.85169        -1.86383
O         -3.98839        -3.27761         1.01638
O         -2.95690         7.16301        -2.26929
H         -2.58084         7.98893        -2.65715
O          5.30417        -7.48146        -1.63606
H          4.57935        -7.10547        -2.18017
O         -8.37518         3.35064        -1.09236
O          0.11280        -1.48908         1.00681
H          0.05441        -0.56105         1.32075
O          3.23135         1.24623        -2.38714
O          1.36672         8.00375        -2.13697
H          0.56905         8.49557        -2.45251
O          4.74763        -1.24421        -2.14260
O         -4.04109        -8.23915        -2.16124
H         -3.21511        -8.61185        -2.53746
O         -4.00154        -0.79490        -2.40989
H         -4.74757        -0.19121        -2.61494
O          8.43767         1.06001        -1.42339
O          0.15090        -6.81857        -2.19536
O          5.64308        -0.62645         1.34491
H          6.38483        -0.32619         1.91209
O         -1.36210        -4.26162        -2.40924
O         -0.09396         7.23335         1.17817
H          0.66774         6.73716         1.54645
H         11.88738        -1.22529         1.32110
H         11.90771         1.23394         1.29978
H         10.68994         3.39356         0.95856
H          9.49371         5.51609         0.77636
H          8.25641         7.64556         0.80934
H          7.01303         9.76949         0.92993
H          4.88639        11.01775         0.76672
H          2.45870        11.03307         0.50859
H          0.00815        11.01678         0.39805
H         -2.51554        11.09648         0.13784
H         -4.84582        11.01625         0.73320
H         -6.91995         9.73290         1.15578
H         -8.13362         7.60437         1.12661
H         -9.32682         5.51371         1.23354
H        -10.58744         3.28668         1.38520
H        -11.82025         1.20062         1.43506
H        -11.85121        -1.26744         1.35015
H        -10.69823        -3.39664         0.96818
H         -9.50246        -5.56123         0.67620
H         -8.30226        -7.69908         0.51273
H         -7.11892        -9.83248         0.41352
H         -4.99201       -11.08900         0.41396
H         -2.52456       -11.00770         0.53048
H         -0.09484       -10.97130         0.57683
H          2.35023       -10.93382         0.87627
H          4.77129       -10.93881         1.15421
H          6.91514        -9.72066         1.31305
H          8.11305        -7.58457         1.30084
H          9.40573        -5.50634         1.07519
H         10.65154        -3.37686         1.15923
