         344
 CSIRO Nanostructure Databank - Neutral Graphene Oxide Data Set
C          1.32347         2.15134         0.67360
C          1.28898         3.54609         0.29740
C          2.44093         1.39117         0.49521
C          2.33883         4.15118        -0.31535
C          1.06814         6.38593        -0.47509
C          1.10166         7.74502        -0.39261
C          2.28337         5.57744        -0.84478
C          2.32269         8.49619        -0.52679
C          1.14767        10.72190        -0.34210
C          1.14815        12.07964        -0.29908
C          2.35022         9.94449        -0.57643
C          2.29362        12.86306        -0.78628
C          1.17124        15.05324        -0.32779
C          1.18017        16.41214        -0.05604
C          2.36821        14.33423        -0.55412
C          2.40038        17.12067        -0.00212
C          2.43300        18.52099         0.28669
C          3.64934         1.97478        -0.02708
C          3.57767         3.34587        -0.66728
C          4.84857         1.30861         0.00073
C          4.86336         4.12006        -0.43004
C          3.55412         6.34665        -0.57601
C          3.53923         7.73225        -0.55338
C          4.72798         5.57164        -0.01287
C          4.83031         8.46142        -0.66829
C          3.55879        10.64821        -0.70152
C          3.59057        12.08662        -1.00487
C          4.82594         9.93881        -0.46873
C          4.91855        12.84981        -1.14675
C          3.60803        15.00997        -0.54920
C          3.62429        16.42622        -0.26655
C          4.87130        14.30623        -0.69684
C          4.83908        17.14541        -0.23467
C          3.61996        19.20419         0.33018
C          4.86222        18.53213         0.07568
C          6.10119         1.98846        -0.25500
C          6.05075         3.44833        -0.35488
C          7.31240         1.32746        -0.16067
C          7.36571         4.17450        -0.51696
C          6.06454         6.32391         0.01205
C          6.12119         7.74373        -0.44928
C          7.36197         5.59692        -0.01235
C          7.39332         8.48390        -0.31888
C          6.11857        10.67008        -0.41061
C          6.13850        12.14062        -0.59666
C          7.40017         9.92951        -0.74700
C          7.31374        12.81601        -0.40448
C          6.07704        14.97993        -0.58658
C          6.10228        16.48286        -0.70545
C          7.34096        14.27649        -0.45665
C          7.35293        17.14455        -0.20201
C          6.09023        19.22914         0.15965
C          7.34125        18.55164         0.07163
C          8.58505         2.02271        -0.06929
C          8.57629         3.41805        -0.07285
C          9.81799         1.30655         0.08942
C          9.81544         4.18095         0.30205
C          8.63935         6.34929        -0.13830
C          8.60346         7.80623        -0.18760
C          9.81871         5.65951        -0.03667
C          9.83394         8.53213        -0.06214
C          8.61170        10.68052        -0.26134
C          8.56859        12.08706        -0.16612
C          9.81387         9.97422        -0.00589
C          9.76838        12.79310         0.03460
C          8.51534        14.96889        -0.21109
C          8.54412        16.41606        -0.13076
C          9.75020        14.26652         0.29753
C          9.78749        17.09735         0.05072
C          8.56174        19.21542         0.29977
C          9.79545        18.51861         0.23324
C         11.06590         1.96779         0.03193
C         11.04164         3.43927        -0.18338
C         12.30765         1.32214         0.06496
C         12.33275         4.20987        -0.18009
C         11.09097         6.36716        -0.01000
C         11.08200         7.83846         0.06544
C         12.28030         5.67878        -0.00871
C         12.25368         8.53473         0.33308
C         11.00246        10.69682         0.24933
C         11.00416        12.10476         0.15698
C         12.23872         9.98825         0.71330
C         12.25437        12.82795         0.05761
C         11.03758        14.95249        -0.09772
C         11.02998        16.39094        -0.07875
C         12.23149        14.22853        -0.17885
C         12.24035        17.10613        -0.12260
C         11.03591        19.18811         0.36675
C         12.26190        18.50876         0.18168
C         13.55480         2.04441         0.18717
C         13.54410         3.47689         0.17066
C         14.75493         1.34214         0.38795
C         14.72727         4.24092         0.52443
C         13.56197         6.46107        -0.14085
C         13.49981         7.75898         0.67334
C         14.80245         5.68251         0.22920
C         14.78478         8.54067         0.51300
C         13.50888        10.74027         0.38233
C         13.50050        12.09861         0.11617
C         14.79658        10.04128         0.74121
C         14.76591        12.85167        -0.01971
C         13.48548        14.89797        -0.71051
C         13.48834        16.42104        -0.52420
C         14.76117        14.22028        -0.24010
C         14.78500        17.17142        -0.38121
C         13.49703        19.18903         0.35193
C         14.75288        18.56211         0.15358
C         16.01806         1.96958         0.92946
C         16.00150         3.49933         0.84005
C         17.29125         1.33569         0.42884
C         17.22352         4.24210         0.41646
C         15.97483         6.39190         0.40772
C         15.96736         7.85585         0.41181
C         17.23040         5.71344         0.60535
C         17.25196         8.55378         0.47011
C         15.97832        10.64475        -0.02127
C         16.01176        12.14010         0.09766
C         17.26580         9.95011         0.34579
C         17.24407        12.81790         0.20530
C         16.06735        14.92594        -0.53819
C         16.05882        16.42043        -0.25841
C         17.27279        14.24627         0.06371
C         17.22579        17.10133        -0.04972
C         15.94895        19.21913         0.36507
C         17.25209        18.62152        -0.08907
C         18.50448         2.01907         0.24983
C         18.50177         3.51064         0.16217
C         19.73387         1.37360         0.10649
C         19.75112         4.25701         0.36628
C         18.42538         6.39863         0.74143
C         18.45868         7.83112         0.69292
C         19.64679         5.58506         1.11388
C         19.70327         8.55000         0.74917
C         18.47145        10.68118         0.49660
C         18.45239        12.09401         0.45981
C         19.70969         9.95935         0.65463
C         19.69387        12.83463         0.86740
C         18.48091        14.95394         0.17721
C         18.49343        16.39463         0.06086
C         19.71336        14.26643         0.41090
C         19.70199        17.08720         0.10291
C         18.45599        19.20440         0.66879
C         19.73866        18.54152         0.22087
C         20.97047         2.15314        -0.26497
C         20.96511         3.55854         0.31394
C         22.26041         1.41085        -0.02371
C         22.17012         4.18498         0.65222
C         20.95241         6.38413         1.09588
C         20.95232         7.84115         0.78678
C         22.22775         5.62481         0.95958
C         22.15502         8.50508         0.56267
C         20.95979        10.66792         0.60164
C         20.96775        12.08268         0.56827
C         22.18241         9.93708         0.49038
C         22.18216        12.78260         0.41701
C         20.93515        14.94020         0.30760
C         20.94980        16.36689         0.11028
C         22.18315        14.22006         0.33322
C         22.16052        17.05404        -0.01693
C         20.89986        19.21781         0.05574
C         22.14810        18.51303        -0.40853
C         23.41823         2.00841         0.38335
C         23.41748         3.43214         0.79286
C         24.69635         1.34559         0.27080
C         24.71729         4.19543         0.91846
C         23.48383         6.32575         0.60193
C         23.39858         7.75134         0.12724
C         24.67853         5.65585         0.61336
C         24.69013         8.50481         0.32983
C         23.42190        10.63896         0.36799
C         23.41881        12.06202         0.32462
C         24.67360         9.91926         0.32730
C         24.64687        12.78773         0.20574
C         23.39905        14.92087         0.19944
C         23.39793        16.35300         0.06488
C         24.64166        14.20763         0.16143
C         24.62444        17.06272         0.04052
C         23.43002        19.21167        -0.05482
C         24.61324        18.51587         0.04493
C         25.89999         2.01805         0.30860
C         26.04493         3.44057         0.83210
C         27.10779         1.34697        -0.05266
C         27.15905         4.21241         0.15816
C         25.92062         6.36495         0.34247
C         25.90081         7.77483         0.29809
C         27.14627         5.63388         0.13519
C         27.21245         8.50734         0.42702
C         25.90526        10.65734         0.21128
C         25.88786        12.07906         0.12141
C         27.14013         9.96953         0.07055
C         27.11076        12.79789        -0.01893
C         25.87153        14.93149         0.07113
C         25.86268        16.36014         0.06688
C         27.10810        14.22995        -0.01386
C         27.10192        17.07357         0.09020
C         25.88234        19.19852         0.15762
C         27.07137        18.52447         0.16749
C         28.28856         2.04557        -0.27870
C         28.30406         3.49706        -0.23003
C         29.48595         1.35190        -0.67057
C         29.49452         4.19404        -0.61196
C         28.34592         6.34031        -0.20816
C         28.37557         7.77027        -0.19674
C         29.52231         5.61982        -0.57734
C         29.53138         8.45890        -0.54158
C         28.30799        10.66880        -0.23644
C         28.33002        12.08963        -0.21564
C         29.49323         9.94451        -0.81528
C         29.57457        12.80624        -0.33351
C         28.33709        14.95165        -0.08391
C         28.31957        16.36400         0.01787
C         29.58528        14.22886        -0.23696
C         29.61106        17.13736         0.17020
C         28.36712        19.30480         0.23789
C         29.48409        18.53184        -0.47030
C         30.62561         2.03065        -0.99699
C         30.66324         3.46749        -0.97338
C         31.84293         4.17492        -1.29210
C         30.73427         6.31326        -0.88278
C         30.74904         7.75887        -0.83455
C         31.87757         5.56032        -1.24071
C         31.93535         8.50565        -0.97052
C         30.80907        10.65200        -0.61163
C         30.80706        12.08509        -0.47892
C         31.96784         9.89996        -0.79096
C         32.01614        12.82043        -0.50646
C         30.81890        14.93797        -0.33073
C         30.84265        16.39363        -0.30655
C         32.01884        14.20263        -0.45056
C         31.96508        17.12786        -0.58472
C         30.80074        19.26686        -0.46219
C         31.95745        18.57527        -0.54745
O         14.12061        17.07607        -1.70091
O         11.62177         3.81366        -1.45549
O          5.46776        10.28387         0.84670
O         15.29296         4.05750         1.97204
O         17.63773         3.94486        -0.97681
O          5.57269         7.93881        -1.82415
O         24.01238         3.76422         2.12629
O          6.75048         5.97573         1.27153
O          2.70425        12.43975        -2.13546
O         21.73852         6.07069         2.31172
O         27.50984         8.50942         1.87445
H         27.46518         7.57896         2.18384
O         28.21952        20.58761        -0.37255
H         28.16041        20.43125        -1.33950
O         18.28296        18.99306         2.07974
H         18.35876        18.03232         2.25609
O          9.66797        14.40395         1.77145
H         10.36685        13.83375         2.15811
O         13.38500         7.43116         2.09733
H         14.18529         6.92130         2.35404
O         13.67311         6.85568        -1.53653
H         13.57333         6.05230        -2.08937
O          2.20535         5.43871        -2.33050
H          2.32687         6.33547        -2.71185
O         29.07337        18.40151        -1.85568
H         29.81354        17.99143        -2.35062
O         16.24078        14.78663        -2.00161
H         15.33265        14.73654        -2.39200
O         22.09570        18.53494        -1.88892
H         22.89622        18.06916        -2.21231
O          9.92058         4.12832         1.76835
H          9.13030         4.57458         2.14150
O          4.29367         5.42713         1.38779
H          5.11805         5.37959         1.93014
O          7.46658         9.94656        -2.20962
H          8.17994         9.33682        -2.49243
O          7.52654         4.35725        -1.97336
H          7.49830         3.46826        -2.38754
O          3.52340         3.08306        -2.10881
H          3.11710         3.87871        -2.53415
O         15.00010        10.27507         2.16057
H         14.11064        10.21956         2.58796
O         20.89534         2.31692        -1.72977
H         20.02714         2.72821        -1.93374
O         17.43231        19.00867        -1.48265
H         16.71838        18.58704        -2.00682
O         15.96324         1.62216         2.35895
H         15.52402         2.38328         2.81101
O         15.71640        10.35261        -1.43020
H         16.39907        10.80583        -1.96802
O         23.23699         7.65139        -1.34569
H         23.31356         8.55959        -1.70977
O          6.13990        16.72123        -2.17601
H          5.47113        16.12740        -2.58144
O         26.52158         3.28671         2.20509
H         25.71604         3.15074         2.75834
O         29.79464        17.36523         1.60122
H         29.94468        16.49434         2.02511
O         13.45161        14.65323        -2.16383
H         13.39222        15.53155        -2.60620
O         12.20323         9.98836         2.22004
H         12.31618         9.04971         2.50907
O          5.18058        12.92606        -2.58503
H          4.30011        12.92801        -3.02999
O         19.39335         5.16579         2.48787
H         20.27232         5.18891         2.94476
O         19.62846        12.90504         2.35344
H         20.46418        13.31920         2.65838
O         29.25988        10.03145        -2.28010
H         30.03709         9.62096        -2.71692
H          0.42033         1.71167         1.11977
H          0.36690         4.10440         0.51561
H          2.45874         0.33945         0.81875
H          0.09605         5.87503        -0.42217
H          0.15705         8.28084        -0.22203
H          0.23432        10.19310        -0.03679
H          0.25687        12.60333         0.07385
H          0.20777        14.52800        -0.37143
H          0.23506        16.94560         0.11830
H          1.48362        19.04198         0.47812
H          4.88909         0.27025         0.36649
H          3.63639        20.27918         0.56099
H          7.31595         0.23304        -0.04433
H          6.08088        20.30579         0.38549
H          9.79013         0.21091         0.18579
H          8.56331        20.29781         0.49522
H         12.34071         0.22437         0.13854
H         11.04684        20.26786         0.57597
H         14.72187         0.24118         0.38142
H         13.47927        20.24454         0.66136
H         17.31613         0.23487         0.44126
H         15.94205        20.25993         0.72289
H         19.77720         0.27409         0.11049
H         18.50362        20.30727         0.50210
H         22.29708         0.36670        -0.37276
H         20.92816        20.31230         0.17203
H         24.69374         0.28566        -0.03001
H         23.44574        20.31239        -0.06214
H         27.07732         0.26193        -0.23798
H         25.88852        20.29830         0.18824
H         29.46646         0.25260        -0.70079
H         28.64928        19.46794         1.30898
H         31.53564         1.48494        -1.28615
H         32.74551         3.61484        -1.57623
H         32.81486         6.07384        -1.49455
H         32.89002         7.98944        -1.13840
H         32.95303        10.38707        -0.78804
H         32.97759        12.29746        -0.59276
H         32.98212        14.72850        -0.48856
H         32.91005        16.63536        -0.85452
H         30.78753        20.36625        -0.49443
H         32.92129        19.09987        -0.62163
