         595
 CSIRO Nanostructure Databank - Neutral Graphene Oxide Data Set
C         23.57001        69.28459        -2.87575
C         23.43741        70.69200        -2.92053
C         22.23678        71.30473        -3.38220
C         23.28317        73.48385        -3.23315
C         22.15744        72.67637        -3.50791
C         26.11663        65.18495        -1.85242
C         26.03064        66.58948        -2.00676
C         24.89139        67.24537        -2.47298
C         25.84942        69.51742        -2.03559
C         24.77527        68.67561        -2.49125
C         25.71235        70.89995        -1.99612
C         24.53965        71.52197        -2.53465
C         25.69560        73.80136        -2.67325
C         24.46609        72.92727        -2.76015
C         28.13112        61.13880         0.15664
C         28.23340        62.48832        -0.27432
C         27.25654        63.14288        -1.04576
C         28.30426        65.38296        -0.74851
C         27.24991        64.55183        -1.28262
C         28.22885        66.78296        -0.78464
C         27.21327        67.40478        -1.64503
C         28.14458        69.70104        -0.88675
C         27.13776        68.91023        -1.64551
C         28.06730        71.12002        -0.97838
C         26.80577        71.72726        -1.43959
C         28.14759        73.78054        -1.98214
C         26.82119        73.21095        -1.83978
C         30.25166        57.08197         1.67174
C         30.31938        58.48242         1.91498
C         29.21357        59.21486         1.34703
C         29.89189        61.56697         1.76480
C         29.04409        60.59900         1.10372
C         30.24149        62.76811         1.23596
C         29.45616        63.23986         0.09072
C         30.29515        65.56550         0.76404
C         29.48746        64.75508        -0.15320
C         29.93468        66.87598         0.90536
C         29.11747        67.61163        -0.03087
C         30.20550        69.92753         0.54292
C         29.16744        69.03763        -0.16971
C         30.31722        71.31349        -0.06904
C         29.19955        71.95161        -0.67918
C         30.52203        73.91996        -1.72536
C         29.28272        73.25269        -1.37566
C         32.84563        52.76883         1.67230
C         32.77613        54.16890         1.86482
C         31.51905        54.84138         1.59663
C         32.96583        57.08446         2.46106
C         31.19240        56.10357         2.10302
C         32.84957        58.49478         2.25474
C         31.57904        59.14302         2.33618
C         32.81342        61.32911         2.25960
C         31.66974        60.54387         2.52282
C         32.73280        62.77063         1.81964
C         31.41956        63.52626         1.77791
C         32.78519        65.71116         1.40453
C         31.46584        64.99531         1.51806
C         32.77987        67.11387         0.94678
C         31.69213        68.05060         1.19538
C         32.84421        69.96113         0.32292
C         31.59708        69.28839         0.62070
C         32.83045        71.37536         0.14776
C         31.53309        71.98317         0.15501
C         33.03130        74.09095        -1.27627
C         31.68536        73.83503        -0.96875
C         35.23368        48.36752         1.55902
C         35.24452        49.80476         2.02478
C         34.01759        50.60562         1.69028
C         35.31302        52.69038         1.92134
C         34.04616        51.99484         1.78019
C         35.32884        54.16001         2.24435
C         34.00828        54.88473         2.08335
C         35.28850        57.02356         1.70152
C         34.07038        56.28949         2.11560
C         35.28059        58.51457         1.75441
C         34.04621        59.24693         2.11102
C         35.32608        61.39798         2.02674
C         34.04090        60.64581         2.07121
C         35.31104        62.89608         1.90844
C         34.00145        63.55689         1.59707
C         35.27483        65.74230         1.31973
C         34.00096        65.04720         1.44399
C         35.32673        67.11976         1.01312
C         34.10412        67.81891         0.60888
C         35.28749        70.00465         0.53911
C         34.07319        69.28411         0.49650
C         35.28425        71.41236         0.24868
C         34.05722        72.10242        -0.01831
C         35.36903        74.08301        -0.68173
C         34.11960        73.44960        -0.59342
C         37.70210        44.15962         0.65096
C         37.67918        45.55352         0.90122
C         36.45399        46.26866         1.01338
C         37.65166        48.43487         1.06067
C         36.39219        47.67304         1.24595
C         37.66672        49.86818         1.41921
C         36.51141        50.55393         1.66850
C         37.75298        52.73431         1.55839
C         36.52010        52.00629         1.77840
C         37.70575        54.14558         1.43542
C         36.52309        54.86874         1.62690
C         37.71343        57.01415         1.25253
C         36.57038        56.29961         1.58123
C         37.83435        58.45979         1.50995
C         36.58740        59.23082         1.85246
C         37.73354        61.37250         1.35404
C         36.58071        60.69471         1.69350
C         37.70620        62.82452         1.28614
C         36.55942        63.56795         1.48905
C         37.74483        65.71836         1.36996
C         36.54965        65.02469         1.41217
C         37.78557        67.21138         1.58796
C         36.52057        67.90309         1.09753
C         37.73143        70.08189         1.02359
C         36.49772        69.28622         0.86107
C         37.75629        71.47416         0.54093
C         36.54441        72.10872         0.18986
C         37.78069        74.19742        -0.21389
C         36.56732        73.48270        -0.22764
C         40.05594        39.93472        -0.46122
C         39.70212        41.04600         0.31621
C         38.76775        42.06947         0.10353
C         40.15090        44.03205         1.01665
C         38.88622        43.39131         0.65391
C         40.16893        45.48789         1.10556
C         38.94639        46.20741         1.01886
C         40.23246        48.35918         1.15401
C         38.96290        47.66808         0.96506
C         40.24618        49.80572         1.34798
C         38.96819        50.56772         1.48939
C         40.13215        52.65951         0.83962
C         38.97786        52.03359         1.28244
C         40.19512        54.13019         0.82811
C         38.95551        54.89008         1.16122
C         40.16597        57.04440         0.60884
C         38.85380        56.29073         0.60262
C         40.16857        58.47302         0.63755
C         39.00849        59.21176         1.03228
C         40.09124        61.34350         0.53159
C         38.97447        60.64696         1.00808
C         40.01499        62.81910         0.19762
C         38.99906        63.51233         1.08226
C         40.19693        65.72239         0.66769
C         39.02697        65.00635         1.21815
C         40.19552        67.16110         0.68692
C         39.04802        67.86849         1.06306
C         40.29345        70.05758         0.75749
C         39.06793        69.33174         1.11982
C         40.25592        71.49725         0.61233
C         38.99221        72.17113         0.46813
C         40.21702        74.29418         0.12443
C         38.99010        73.56602         0.12567
C         42.48541        36.13261        -2.16255
C         42.50431        37.27309        -1.31809
C         41.35341        38.00100        -1.05284
C         42.54369        39.84574         0.11136
C         41.31432        39.25719        -0.36020
C         42.64913        41.22060         0.51900
C         41.50456        41.93141         0.97438
C         42.68476        44.02748         1.19119
C         41.38872        43.33959         1.01602
C         42.68992        45.54442         1.30324
C         41.39971        46.22182         1.15019
C         42.69039        48.38103         1.03114
C         41.43660        47.65358         1.09979
C         42.67876        49.80962         0.86157
C         41.47192        50.50839         0.96795
C         42.63350        52.61869         0.12810
C         41.35137        51.89047         0.50520
C         42.59505        54.11508        -0.06472
C         41.29816        54.87310         0.14415
C         42.55820        57.02836        -0.00003
C         41.34326        56.34731         0.30275
C         42.55026        58.46390        -0.06716
C         41.35549        59.15563         0.22970
C         42.51906        61.37384        -0.33947
C         41.25066        60.60696         0.01444
C         42.55559        62.84861        -0.11355
C         41.34268        63.55789         0.16271
C         42.52632        65.73474        -0.14450
C         41.32533        64.97696         0.25914
C         42.61936        67.18032         0.13012
C         41.43666        67.88580         0.43427
C         42.73947        70.02375         0.43475
C         41.45240        69.31725         0.54795
C         42.74397        71.52380         0.41099
C         41.44935        72.23304         0.44741
C         42.70086        74.47239         0.41796
C         41.42889        73.65014         0.29410
C         44.80943        33.83691        -3.94470
C         43.63912        34.38370        -3.44891
C         44.95288        36.09047        -2.21428
C         43.66713        35.52258        -2.59126
C         45.02778        37.12966        -1.29911
C         43.78848        37.69705        -0.72265
C         45.12279        39.75291         0.16551
C         43.79415        39.04579         0.01010
C         45.15285        41.23268         0.36282
C         43.88160        41.96661         0.48997
C         45.15400        44.07773         0.76816
C         43.92472        43.33395         0.79270
C         45.15498        45.50681         0.92249
C         43.95484        46.25616         1.06169
C         45.14630        48.43604         0.97342
C         43.93180        47.68889         0.99701
C         45.16243        49.85363         0.84727
C         43.91887        50.54520         0.68162
C         45.10983        52.69834         0.49116
C         43.91048        51.94305         0.44240
C         45.06686        54.18513         0.41248
C         43.82911        54.89624         0.01603
C         45.03119        56.99119        -0.53020
C         43.78241        56.28049        -0.14007
C         45.01305        58.48465        -0.85623
C         43.76343        59.20928        -0.37125
C         45.04390        61.30607        -0.65217
C         43.76951        60.58373        -0.41428
C         45.04874        62.80185        -0.47657
C         43.77982        63.50642        -0.19783
C         45.10094        65.67131        -0.12998
C         43.82272        64.96663        -0.33942
C         45.10357        67.10976        -0.12041
C         43.88669        67.81619        -0.04725
C         45.17185        70.04156        -0.40017
C         43.89762        69.29369        -0.16024
C         45.21453        71.50877        -0.19225
C         43.93158        72.22592        -0.17628
C         45.24333        74.36884         0.09940
C         43.94386        73.74528        -0.07252
C         46.05931        34.41194        -3.64440
C         47.41435        36.16072        -2.57526
C         46.15878        35.53197        -2.80816
C         47.52090        37.29950        -1.78354
C         46.33696        37.73975        -0.99914
C         47.47090        40.01269        -0.90314
C         46.38521        39.09483        -0.34881
C         47.57053        41.36890        -0.24646
C         46.39643        42.00891         0.15753
C         47.60960        44.12229         0.37965
C         46.38469        43.40059         0.46311
C         47.59378        45.53558         0.60255
C         46.40447        46.21413         0.84733
C         47.67669        48.46045         1.00240
C         46.40070        47.67904         1.10795
C         47.65344        49.92526         0.80617
C         46.39017        50.61732         0.81347
C         47.61182        52.81069         0.69939
C         46.34345        52.03550         0.68654
C         47.63427        54.22520         0.25891
C         46.36760        54.95769         0.33655
C         47.61266        57.06615        -0.33179
C         46.33850        56.30655        -0.31130
C         47.58413        58.47671        -0.44660
C         46.32975        59.19879        -0.50457
C         47.58518        61.37851        -0.77710
C         46.32430        60.57707        -0.51687
C         47.52082        62.81371        -0.24854
C         46.32516        63.50451        -0.16134
C         47.49045        65.67893         0.41514
C         46.27242        64.94004         0.03875
C         47.52823        67.14335         0.26340
C         46.38091        67.81978        -0.06223
C         47.67370        70.02569         0.01737
C         46.47774        69.26532        -0.52991
C         47.64938        71.43895        -0.07470
C         46.42682        72.19124        -0.19636
C         47.65993        74.34495         0.18266
C         46.44609        73.65503        -0.02278
C         48.74486        38.00083        -1.62163
C         49.99289        40.01724        -0.97743
C         48.79044        39.30348        -1.10190
C         50.03979        41.38463        -0.60905
C         48.80373        42.07548        -0.27358
C         50.09270        44.16261         0.04632
C         48.82596        43.44871         0.04950
C         50.11950        45.51640         0.29747
C         48.85579        46.27015         0.36291
C         50.16197        48.48569         0.56150
C         48.88740        47.75019         0.50110
C         50.13426        49.86028         0.50307
C         48.86774        50.56875         0.58559
C         50.11125        52.69213         0.02536
C         48.90462        52.03595         0.60865
C         50.07874        54.15977        -0.27250
C         48.79881        54.90588        -0.09047
C         50.08939        57.02587        -0.68169
C         48.80821        56.32090        -0.29797
C         50.06827        58.48946        -0.29550
C         48.84144        59.20776        -0.37581
C         50.07046        61.31038        -0.26936
C         48.84613        60.62904        -0.39145
C         50.12381        62.80032        -0.34598
C         48.78685        63.57264        -0.24763
C         50.07058        65.73627         0.30465
C         48.80855        64.94996         0.33239
C         50.10547        67.10882         0.41366
C         48.80461        67.85669         0.67975
C         50.10772        69.97559         0.45905
C         48.86359        69.31291         0.28187
C         50.08993        71.44809         0.56129
C         48.91956        72.16291        -0.02869
C         50.20659        74.37306         0.41662
C         48.94566        73.70467         0.04580
C         51.26399        42.08283        -0.56122
C         52.55940        44.16774        -0.26715
C         51.33535        43.45485        -0.23686
C         52.64471        45.54504         0.03610
C         51.40105        46.22337         0.46731
C         52.66690        48.46053         0.30926
C         51.42191        47.73356         0.60760
C         52.64396        49.84376         0.24447
C         51.39222        50.59278         0.35214
C         52.63380        52.70472        -0.18393
C         51.38644        51.95466         0.18053
C         52.56306        54.16880         0.23227
C         51.35060        54.92320        -0.21609
C         52.57938        57.05424        -0.11398
C         51.35168        56.29103        -0.28499
C         52.55884        58.42724        -0.04590
C         51.28846        59.16785        -0.10483
C         52.54061        61.32685        -0.12351
C         51.26382        60.58554        -0.05318
C         52.58578        62.76489         0.35488
C         51.30589        63.50513         0.10841
C         52.60885        65.70427         0.43755
C         51.29316        64.92893         0.40512
C         52.59817        67.17879         0.43110
C         51.36562        67.85146         0.50550
C         52.57241        70.05189         0.77262
C         51.33553        69.29662         0.59823
C         52.61190        71.43081         0.85581
C         51.35559        72.20612         0.83204
C         52.64752        74.33981         0.62567
C         51.38548        73.67907         0.59814
C         53.83662        46.28804        -0.02453
C         55.10259        48.41900         0.00768
C         53.89132        47.70817         0.12122
C         55.15306        49.83797         0.06332
C         53.89268        50.57619         0.14347
C         55.16240        52.66353         0.39878
C         53.89204        51.95207         0.16252
C         55.13506        54.15877         0.57629
C         53.83268        54.91836         0.43880
C         55.15490        57.04949         0.07250
C         53.88378        56.28732        -0.21819
C         55.13638        58.45558         0.10464
C         53.81726        59.15899         0.39947
C         55.06931        61.39771         0.13412
C         53.83327        60.59851        -0.08205
C         55.04718        62.75253        -0.00716
C         53.76265        63.48760        -0.35759
C         55.09406        65.77564         0.03603
C         53.81695        65.00455        -0.08693
C         55.07939        67.16741         0.52998
C         53.87258        67.85106         0.59618
C         55.15909        70.04099         1.01073
C         53.84019        69.28827         0.96011
C         55.14953        71.50177         0.82076
C         53.87335        72.20697         1.22387
C         55.07884        74.32852         0.61626
C         53.85498        73.65470         0.77619
C         56.35878        50.54620        -0.08436
C         57.60562        52.68366        -0.12282
C         56.43039        51.96920         0.04879
C         57.72503        54.13114         0.11362
C         56.41965        54.92006         0.44862
C         57.61502        57.04956         0.01843
C         56.38523        56.35726         0.13397
C         57.60134        58.47588        -0.02066
C         56.34848        59.16463         0.13398
C         57.61332        61.36898        -0.01579
C         56.33653        60.63653         0.30571
C         57.52352        62.81647        -0.36343
C         56.30791        63.52431         0.12681
C         57.62466        65.73849        -0.13473
C         56.36370        65.00851         0.15492
C         57.61556        67.14872         0.05483
C         56.41648        67.80610         0.64100
C         57.60329        70.04399         0.21107
C         56.45316        69.31650         0.78743
C         57.55647        71.48876         0.22022
C         56.31387        72.18303         0.54740
C         57.53075        74.33984         0.44779
C         56.31944        73.64620         0.54246
C         58.83876        54.93106        -0.37638
C         60.04954        57.07677        -0.45364
C         58.85417        56.33382        -0.23587
C         60.06812        58.49068        -0.45735
C         58.82269        59.16475        -0.28221
C         60.07471        61.36641        -0.73879
C         58.78544        60.60488        -0.52099
C         60.05008        62.82824        -0.42893
C         58.77558        63.58630        -0.61038
C         60.03892        65.75638        -0.60530
C         58.80175        65.05444        -0.41151
C         60.00648        67.20349        -0.57935
C         58.78746        67.88576        -0.19267
C         59.93553        70.05709        -0.63816
C         58.74543        69.33300        -0.16344
C         59.93166        71.58364        -0.49440
C         58.71563        72.23128         0.00593
C         60.00281        74.31192         0.24529
C         58.76555        73.65666         0.24033
C         61.29811        59.24189        -0.59660
C         62.55666        61.41598        -0.69643
C         61.35870        60.63932        -0.64134
C         62.58550        62.83101        -0.73009
C         61.33692        63.59347        -0.45862
C         62.46335        65.69654        -1.17182
C         61.24514        65.03903        -0.74682
C         62.44177        67.25768        -1.17075
C         61.20275        67.92886        -0.76697
C         62.43962        70.05802        -0.74819
C         61.23700        69.35221        -0.66527
C         62.43729        71.53927        -0.72494
C         61.21394        72.27175        -0.38154
C         62.49218        74.27232         0.27158
C         61.24421        73.62170         0.02526
C         63.76641        63.57726        -0.90901
C         64.92847        65.76096        -1.01840
C         63.76322        64.99858        -1.02107
C         64.93631        67.19920        -0.94455
C         63.71347        67.95387        -0.96656
C         64.93866        70.03440        -0.50321
C         63.70012        69.34865        -0.76083
C         64.96808        71.41948        -0.21371
C         63.76789        72.24937        -0.42241
C         64.92850        74.16123         0.63475
C         63.71932        73.59975         0.17841
C         66.13801        67.88159        -0.70280
C         67.35964        69.92765        -0.07423
C         66.16048        69.27756        -0.44076
C         67.37161        71.28755         0.29332
C         66.15215        72.04204         0.23300
C         67.35646        74.02028         1.05126
C         66.14523        73.43045         0.62507
C         68.56604        71.94100         0.71512
C         68.54581        73.28017         1.08341
O         45.31391        40.27704         1.51358
O         41.70267        54.45934        -1.18079
O         45.69572        56.24928        -1.63784
O         31.48075        73.35101         0.34669
O         45.66965        54.83538         1.61178
O         49.48984        63.45198        -1.51467
O         46.74976        37.94019         0.42258
O         57.35310        54.57944         1.48021
O         51.51620        46.85879         1.79694
O         53.67469        59.18858         1.80244
O         63.23902        72.17286        -1.77971
O         56.45753        64.22800         1.40649
O         50.41687        71.87925         1.93040
O         55.15458        53.29228         1.73960
O         27.77490        68.17589        -2.76585
O         35.07741        57.82633         0.45902
O         39.97829        54.71146         2.18214
O         42.76629        44.67973         2.50169
O         60.70027        63.17693         0.82168
O         31.96873        56.50242         3.23026
O         48.69878        47.16432        -0.84981
O         33.29816        67.19385        -0.43312
O         59.72654        70.91229        -1.80027
O         33.34511        62.87442         0.47148
O         49.95020        53.16641        -1.37959
O         30.20928        63.81265        -1.01144
O         38.25236        48.20760        -0.25744
O         30.50677        61.18303         2.95961
O         57.91565        63.15716        -1.72396
O         47.19994        48.03453         2.31503
O         26.38102        72.80029        -0.52059
O         41.83725        51.96294        -0.89987
O         62.34344        66.47447        -2.40029
O         40.45923        41.18961         1.50355
O         44.24447        69.73141        -1.52628
O         38.40094        69.90243         2.32221
O         49.15806        72.94095        -1.22769
O         57.25710        61.10043         1.36012
O         43.02813        65.42381        -1.48872
O         39.70653        50.18637         2.72638
O         43.75483        37.78205         0.74201
O         48.13588        65.10245         1.62958
O         30.58586        67.59372         1.92722
O         31.14327        64.45950         2.86273
O         52.96086        54.64559         1.56358
O         53.22837        60.92171        -1.36831
O         48.46377        52.59667         1.88787
O         52.06940        65.18572         1.68858
O         45.03164        62.19647        -1.83858
O         41.56234        61.00858        -1.39602
O         54.48605        69.60695         2.24562
O         37.45767        58.77514         2.92881
O         35.42326        62.27849         3.22507
O         43.09665        70.79768         1.63983
O         39.47538        64.10201         2.32314
O         43.68938        73.05666        -1.35327
O         56.77123        68.44666         1.91435
O         54.39091        65.67452        -1.26069
O         59.24530        60.98005        -1.86595
O         44.92451        58.60009        -2.30055
H         45.36403        57.80360        -2.68071
O         35.26878        49.72732         3.50796
H         36.15097        49.39046         3.77514
O         35.56481        54.24679         3.70515
H         36.37265        53.72588         3.90475
O         29.72036        70.16633         1.89322
H         29.74430        69.30241         2.36613
O         52.86359        62.66729         1.76566
H         52.68315        63.54443         2.18340
O         48.71705        67.87746         2.14708
H         48.65217        66.93722         2.44019
O         53.50891        63.36167        -1.76488
H         54.06706        64.02140        -2.23469
O         38.49646        56.10795        -0.80767
H         38.36001        56.99052        -1.21191
O         39.46971        62.88405        -1.15844
H         40.09282        62.37381        -1.73062
O         50.11433        57.02498        -2.15513
H         49.34140        57.54226        -2.46852
O         42.57805        75.70697        -0.29494
H         42.62693        75.50363        -1.25234
O         53.87398        72.25498         2.68399
H         53.98076        71.32176         2.99316
O         47.64461        61.49655        -2.23255
H         46.76422        61.84120        -2.52523
O         46.96562        40.31194        -2.25923
H         47.63841        40.86407        -2.71234
O         54.02152        55.94247        -1.64654
H         53.72986        56.71197        -2.18085
O         52.65841        52.76273        -1.65587
H         51.73211        52.96006        -1.95003
O         46.76515        69.16250        -1.95486
H         45.89536        69.16145        -2.41975
O         26.17368        74.05514        -4.00904
H         26.11115        73.22723        -4.52808
O         37.80430        67.37394         3.04522
H         37.96391        68.33529         3.21884
H         23.23088        74.56654        -3.41575
H         25.42333        74.79815        -2.23921
H         28.25784        74.63225        -2.66970
H         30.52083        74.52290        -2.64561
H         33.28082        74.78865        -2.08957
H         35.41848        75.09741        -1.10384
H         37.78594        75.25920        -0.50021
H         40.20029        75.38287        -0.02951
H         42.83600        74.73651         1.50201
H         45.27812        75.42197         0.41550
H         47.62312        75.38582         0.53723
H         50.22787        75.47343         0.38810
H         52.67372        75.42005         0.41302
H         55.06762        75.41837         0.45969
H         57.53278        75.43724         0.52321
H         60.03673        75.38889         0.46567
H         62.47836        75.30283         0.65603
H         64.92840        75.19176         1.02048
H         67.36059        75.07596         1.35821
H         22.71993        68.65624        -3.18018
H         21.38132        70.66853        -3.65049
H         21.23092        73.14616        -3.86569
H         25.25846        64.56579        -2.15376
H         24.01889        66.65178        -2.78463
H         27.35572        60.49361        -0.28288
H         26.37442        62.56927        -1.36819
H         29.42209        56.72744         1.04023
H         28.46102        58.57274         0.85795
H         31.90952        52.22884         1.46151
H         30.81254        54.33778         0.91992
H         34.29470        47.80647         1.68726
H         33.06314        50.08586         1.51702
H         36.75245        43.65206         0.42433
H         35.51574        45.69418         1.00004
H         39.35113        39.57821        -1.22723
H         37.91273        41.88097        -0.56334
H         41.51690        35.74863        -2.51611
H         40.40605        37.63398        -1.47614
H         44.76632        32.95700        -4.60162
H         42.66644        33.94695        -3.71687
H         46.97384        33.98375        -4.07905
H         48.30503        35.77462        -3.09363
H         49.67462        37.53404        -1.98180
H         50.93915        39.49908        -1.19665
H         52.19183        41.54243        -0.80241
H         53.47534        43.62855        -0.55376
H         54.77325        45.75812        -0.25735
H         56.04138        47.85937        -0.12225
H         57.28943        49.98698        -0.26471
H         58.51145        52.14731        -0.44587
H         59.71239        54.42272        -0.81251
H         60.98717        56.52722        -0.62528
H         62.23852        58.67023        -0.60735
H         63.51553        60.88021        -0.77155
H         64.73102        63.05011        -0.96425
H         65.89758        65.24495        -0.94063
H         67.07960        67.31524        -0.64851
H         68.29531        69.34993        -0.03919
H         69.50544        71.37099         0.74857
H         69.47466        73.76792         1.41082
