         276
 CSIRO Nanostructure Databank - Neutral Graphene Oxide Data Set
C        -11.04500         0.69206         1.08867
C         -9.90527         1.47623         0.62508
C         -8.77204         0.62678         0.06169
C         -7.50628         1.43468        -0.17207
C         -6.21383         0.70733        -0.12309
C         -4.93338         1.43839        -0.18464
C         -3.68486         0.73613        -0.57270
C         -2.44493         1.44937        -1.09721
C         -1.18118         0.75563        -0.49394
C          0.01314         1.47596        -1.10371
C          1.26104         0.72114        -1.44078
C          2.53365         1.52657        -1.63481
C          3.84867         0.77647        -1.72024
C          5.14090         1.48480        -1.30855
C          6.35512         0.65007        -0.96718
C          7.23130         1.18791         0.16521
C          8.66201         0.60048         0.16464
C          9.34485         0.76455         1.58349
C         10.78252         0.30080         1.42660
C         -9.88776         2.83566         0.65609
C         -8.85447         3.68870        -0.06699
C         -7.53637         2.92202        -0.23122
C         -6.25088         3.63999         0.05050
C         -4.94756         2.91754        -0.02355
C         -3.68733         3.67200        -0.35253
C         -2.44441         2.95865        -0.80904
C         -1.12052         3.62793        -0.61983
C          0.04936         2.95589        -0.80314
C          1.41914         3.55488        -0.44988
C          2.54724         3.01363        -1.37025
C          3.93992         3.72584        -1.33822
C          5.03995         2.86069        -0.76913
C          6.12072         3.43064        -0.09684
C          7.29276         2.67655         0.05546
C          8.56106         3.21787         1.72300
C          9.12453         2.09796         2.27826
C         -8.65454         5.10157         0.46309
C         -7.50562         5.82213         0.29508
C         -6.24792         5.12389        -0.09100
C         -4.93188         5.80238         0.05717
C         -3.61856         5.04555         0.33272
C         -2.41991         5.84679        -0.20929
C         -1.12468         5.06377        -0.09120
C          0.07844         5.80836        -0.64978
C          1.40636         5.14386        -0.26068
C          2.59884         5.82404        -1.03706
C          3.85151         5.07629        -0.70234
C          4.93707         5.64654         0.07532
C          6.15305         4.83270         0.44044
C          6.91141         5.16310         1.71740
C          7.92424         4.34887         2.31625
C         -7.41894         7.26179         0.51792
C         -6.23508         7.95205         0.49884
C         -4.93761         7.23725         0.43229
C         -3.67914         7.96617         0.09437
C         -2.47143         7.19725        -0.34409
C         -1.32932         8.04763        -0.90252
C          0.01877         7.29167        -0.90548
C          1.30734         8.06989        -0.70024
C          2.61000         7.32011        -0.66791
C          3.68451         7.84057         0.25986
C          4.54795         6.80778         0.92388
C          5.39083         7.16007         2.10330
C          6.56636         6.32877         2.39958
C         -6.12422         9.39612         0.67554
C         -4.98388        10.07359         0.41244
C         -3.78879         9.43650        -0.26086
C         -2.45258        10.08045         0.02208
C         -1.30570         9.43426        -0.26700
C         -0.00691        10.20411        -0.26316
C          1.20615         9.35674         0.05048
C          2.20737         9.83553         0.82198
C          3.48524         9.12061         1.01393
C          4.29858         9.37495         2.23483
C          5.23718         8.51884         2.67944
C        -10.99930        -0.66269         1.21660
C         -9.75425        -1.41454         1.11930
C         -8.50851        -0.54646         1.03657
C         -7.27984        -1.34964         0.63212
C         -6.21632        -0.65500        -0.12260
C         -5.06918        -1.42668        -0.64741
C         -3.80152        -0.69842        -0.99056
C         -2.51965        -1.46948        -0.97765
C         -1.20019        -0.78213        -0.73734
C          0.05514        -1.51678        -1.12035
C          1.34633        -0.75651        -1.13855
C          2.62993        -1.51240        -1.34248
C          3.85955        -0.75381        -1.80017
C          5.16261        -1.52562        -1.72431
C          6.38641        -0.83057        -1.20301
C          7.32135        -1.63899        -0.30877
C          8.65871        -0.89641        -0.18379
C          9.88879        -1.63873         0.19118
C         11.01411        -0.86439         0.80426
C         -9.69860        -2.77114         1.17742
C         -8.41082        -3.55489         1.39233
C         -7.19600        -2.82982         0.79472
C         -6.14902        -3.55239         0.00984
C         -5.08357        -2.90069        -0.54707
C         -3.94959        -3.67419        -1.23633
C         -2.60058        -2.89127        -1.44959
C         -1.27896        -3.60037        -1.50722
C          0.02652        -2.85138        -1.39491
C          1.25709        -3.59425        -1.98574
C          2.61373        -3.07788        -1.32400
C          3.85488        -3.79758        -1.90348
C          5.16720        -3.06284        -1.74530
C          6.37725        -3.80760        -1.28296
C          7.47090        -3.08879        -0.72246
C          8.62375        -3.77183        -0.25780
C          9.65487        -3.07351         0.59790
C         -8.48137        -5.02360         1.03182
C         -7.43779        -5.72196         0.54251
C         -6.26393        -5.03322        -0.05556
C         -4.98549        -5.77687        -0.28148
C         -3.71390        -4.92743        -0.33313
C         -2.50171        -5.78892        -0.80181
C         -1.21400        -4.93530        -0.79313
C         -0.00392        -5.80204        -1.09016
C          1.19082        -5.20803        -1.88253
C          2.51601        -5.95959        -1.48388
C          3.81599        -5.34937        -2.01252
C          5.13304        -6.03041        -1.48190
C          6.36871        -5.22161        -1.24886
C          7.54704        -5.90100        -0.76184
C          8.70119        -5.14468        -0.39279
C         -7.39502        -7.24314         0.49761
C         -6.00445        -7.71607         1.04681
C         -4.89414        -7.21247         0.14215
C         -3.51466        -7.85510         0.28541
C         -2.37992        -6.97660         0.12672
C         -1.09161        -7.29806         0.82747
C          0.07013        -6.96341        -0.15717
C          1.42779        -7.27209         0.48052
C          2.55427        -7.15025        -0.57038
C          3.81765        -7.97171        -0.23314
C          5.11090        -7.40940        -0.83286
C          6.38886        -8.14825        -0.38939
C          7.58311        -7.25577        -0.43293
C         -5.88151        -9.19931         1.28577
C         -4.66901        -9.79351         1.37316
C         -3.42535        -9.08267         1.10652
C         -2.19127        -9.52454         1.50126
C         -0.98991        -8.76573         1.24427
C          0.24674        -9.29640         1.51166
C          1.47805        -8.58531         1.24076
C          2.69216        -8.97221         1.71206
C          3.93272        -8.20060         1.30411
C          5.19038        -8.94884         1.66325
C          6.30390        -8.86638         0.93515
O          1.31673        -3.18891        -3.28457
O          1.60492        -6.21418         1.39302
O          2.25422        -1.01412        -0.00325
O          8.45587         3.31671         0.27844
O          2.27896         2.52533        -2.68913
O         -3.42291         4.88628         1.70371
O         -4.01361         7.64629         1.48501
O         -3.32273         3.66707        -1.76413
O         -1.90877        -1.44841         0.37163
O          5.23639        -7.27127        -2.26977
O         -0.24201        -7.18849        -1.53234
O         -2.00241        -3.28596        -2.72378
O          9.62334        -1.29175        -1.20833
O          4.35204         9.03988        -0.19658
O         -5.56040         3.23869         1.27095
O          7.06904         0.08832        -2.09625
O         -5.51865         5.61433        -1.26817
O         -4.42793        -8.06479        -0.90846
O          2.26612         8.15105        -1.81194
O         -4.72260        -0.99392        -2.04903
O         -6.59680        -1.94741         1.81909
O          2.28497        -7.34685        -1.96704
O          4.08982         6.38781         2.24051
O          0.27783         1.04850        -2.46605
O          0.00234         6.31248        -1.99919
O         -3.95733         0.89594         0.83846
O          4.59570        -3.38170        -3.06194
O          4.59508        -1.08752        -2.98797
O          6.25661         5.82607        -0.61736
O         -7.52440         2.16086        -1.48557
O          4.72728         1.36344        -2.69787
O         -5.91996        -5.60885        -1.37434
O          3.61233        -9.26905        -0.81103
H          3.39856        -9.12352        -1.76037
O          0.94528        -5.57576        -3.23561
H          1.01630        -6.55347        -3.29690
O         -0.94590        -4.47234         0.56039
H         -1.50090        -3.68268         0.76404
O         -0.90240         4.97246         1.34411
H         -1.82097         4.86774         1.77873
O         -8.25405         0.05119         2.32191
H         -7.67133        -0.56029         2.82525
O          4.36968         3.94938        -2.70182
H          3.77837         3.40812        -3.28535
O          2.36990         5.65541        -2.43681
H          2.21161         6.55188        -2.81936
O         -2.74558        -6.21995        -2.14379
H         -3.45810        -6.90286        -2.13493
O         -4.40678        -4.04881        -2.52506
H         -3.61914        -4.15440        -3.10974
O          4.03692        -6.92875         1.97165
H          3.12863        -6.49874         1.97293
O          6.66147        -9.18516        -1.37742
H          6.41933        -8.80180        -2.25263
O          6.71225        -1.70748         1.02039
H          7.33239        -2.24568         1.58353
O         -3.47237        -4.42923         0.99310
H         -3.08084        -5.13673         1.55223
O          8.73618        -0.23639         2.45913
H          7.93887         0.17288         2.86313
O          1.63059         5.45335         1.11810
H          0.75205         5.39881         1.58624
O          1.79339         2.97317         0.81660
H          1.75904         3.69141         1.49645
O          2.62417        -3.51351         0.03039
H          2.17024        -2.83216         0.58312
O         -2.40471         1.24941        -2.51358
H         -2.83527         2.01944        -2.94717
O         -5.78722        -7.03849         2.31600
H         -6.34365        -7.47136         2.99640
O         -0.91963        -6.51567         2.02422
H          0.04204        -6.22171         2.04920
O         -0.10889        11.32937         0.59678
H          0.51063        12.01988         0.28930
O         -1.64330         8.28775        -2.30613
H         -1.43591         7.45596        -2.79308
O         -4.03873         9.54992        -1.68813
H         -3.25676         9.16973        -2.16155
O         -8.23933        -3.59970         2.84293
H         -7.61789        -2.86867         3.07494
O          6.52584         0.92445         1.40633
H          6.38720        -0.06172         1.46762
O          9.42538         1.28623        -0.82283
H          9.80373         0.60787        -1.43117
O         -9.41838         3.89964        -1.39555
H         -8.99304         3.24444        -1.99684
O         -8.43049        -7.82171         1.28110
H         -8.46906        -7.35631         2.14187
O         -9.17355         0.04325        -1.19111
H         -9.00728         0.70970        -1.89400
O         -1.13956         0.99276         0.91063
H         -1.82259         0.42694         1.33860
O          3.76416        -5.65816        -3.40999
H          4.26452        -4.97341        -3.90740
O          9.07866        -3.01652         1.92983
H          9.40951        -2.20546         2.38328
H         12.03546        -1.25900         0.68590
H         11.60544         0.89435         1.84989
H          9.11839         2.04094         3.37786
H          8.25745         4.65491         3.32048
H          7.17208         6.61702         3.27286
H          5.86491         8.78312         3.54362
H          4.15856        10.34459         2.73680
H          2.06215        10.79164         1.34987
H          0.14736        10.57022        -1.32546
H         -2.40356        11.11597         0.39396
H         -4.95351        11.16334         0.56647
H         -7.00740         9.93706         1.04993
H         -8.36236         7.81245         0.65523
H         -9.56867         5.62997         0.77681
H        -10.76613         3.36480         1.06068
H        -11.98952         1.22436         1.27963
H        -11.91277        -1.21636         1.48260
H        -10.63923        -3.33689         1.27739
H         -9.35820        -5.56648         1.41997
H         -7.51545        -7.60922        -0.55226
H         -6.80043        -9.76476         1.50012
H         -4.59711       -10.85199         1.66667
H         -2.09882       -10.48148         2.03809
H          0.31871       -10.31525         1.92584
H          2.79460        -9.87754         2.33140
H          5.19052        -9.51672         2.60680
H          7.21531        -9.40128         1.24355
H          8.54911        -7.69704        -0.14180
H          9.58354        -5.68244        -0.01594
H         10.61036        -3.66591         0.62747
