         324
 CSIRO Nanostructure Databank - Neutral Graphene Oxide Data Set
C         30.38365        57.14074         0.59094
C         30.38900        58.54883         0.66879
C         29.21569        59.27427         0.98480
C         30.43853        61.37243         0.98757
C         29.24963        60.66584         1.12947
C         32.77994        52.87380         0.16550
C         32.78190        54.27683         0.15754
C         31.58321        55.00789         0.33570
C         32.79119        57.13957         0.03509
C         31.56641        56.41653         0.32907
C         32.78986        58.58183         0.10175
C         31.62646        59.26796         0.46059
C         32.86181        61.40253         0.56717
C         31.65379        60.70382         0.66238
C         35.24992        48.56757        -0.07615
C         35.21511        49.99759        -0.55190
C         33.98183        50.76706        -0.17373
C         35.27948        52.87860         0.24488
C         33.98928        52.12380         0.01568
C         35.23909        54.32261        -0.19773
C         34.02195        55.00676        -0.10802
C         35.17588        57.16153        -0.74176
C         33.96217        56.43295        -0.23962
C         35.19614        58.62241        -0.35718
C         34.04388        59.30309        -0.05361
C         35.26141        61.47063         0.09088
C         34.08541        60.75186         0.21334
C         37.72260        44.28820         0.05007
C         37.70184        45.72094         0.04622
C         36.50099        46.43508         0.09688
C         37.70263        48.58357        -0.20272
C         36.44342        47.86490        -0.04666
C         37.72028        49.99946        -0.29308
C         36.50097        50.74954        -0.28308
C         37.75420        52.87583        -0.23835
C         36.51929        52.13296        -0.16896
C         37.75838        54.30517        -0.40151
C         36.48570        55.03560        -0.39284
C         37.70701        57.16342        -0.77356
C         36.46491        56.41695        -0.49440
C         37.76648        58.60266        -0.38334
C         36.48663        59.34250        -0.23848
C         37.81518        61.46678        -0.14347
C         36.49309        60.83291        -0.49336
C         40.16997        40.01833         0.15508
C         40.14064        41.41055        -0.03874
C         38.92526        42.13936         0.01008
C         40.22238        44.26209         0.24797
C         38.90855        43.54799         0.02358
C         40.20831        45.71484        -0.16003
C         38.95814        46.44624        -0.08082
C         40.18962        48.58623        -0.45930
C         38.91718        47.84198        -0.18561
C         40.15983        50.03122        -0.06093
C         38.97182        50.72579        -0.18814
C         40.21712        52.88200        -0.28060
C         38.97462        52.17363        -0.22384
C         40.23127        54.29222        -0.47342
C         38.98095        54.97540        -0.60608
C         40.27891        57.19832        -0.83321
C         38.99425        56.42097        -0.91655
C         40.24200        58.64926        -0.51796
C         39.05013        59.34248        -0.46862
C         40.28091        61.45844        -0.12993
C         39.01466        60.78032        -0.23113
C         42.70226        35.85842         0.89507
C         42.67187        37.25206         0.77369
C         41.41427        37.95137         0.62736
C         42.69147        39.85276        -0.27550
C         41.37174        39.26722         0.19938
C         42.59592        41.34230        -0.62506
C         41.38311        42.12989        -0.30284
C         42.67030        44.24303        -0.46111
C         41.43363        43.50601        -0.24534
C         42.69178        45.69517        -0.43481
C         41.41805        46.37044        -0.33681
C         42.71673        48.52592         0.06289
C         41.42186        47.82450        -0.06014
C         42.72923        50.01626         0.20699
C         41.41206        50.76077         0.16766
C         42.68465        52.85797        -0.14486
C         41.44748        52.19206        -0.12757
C         42.69022        54.28751        -0.24226
C         41.49021        54.97547        -0.44225
C         42.72949        57.16276        -0.05621
C         41.55395        56.44625        -0.60990
C         42.66143        58.59981         0.03595
C         41.49634        59.31417        -0.23172
C         42.74775        61.45921        -0.08973
C         41.48672        60.77052        -0.12685
C         45.19359        33.07386         1.14023
C         43.97533        33.73750         1.06702
C         45.15201        35.89609         1.01297
C         43.93036        35.15809         0.99246
C         45.11086        37.32132         0.97647
C         43.89896        37.99476         0.82397
C         45.10826        40.25961         0.53206
C         43.77814        39.51773         0.78846
C         45.14937        41.50381        -0.29749
C         43.87239        42.10768        -0.77773
C         45.09531        44.28776        -1.01923
C         43.85187        43.57522        -0.70106
C         45.16304        45.73313        -0.76770
C         43.90633        46.39705        -0.54479
C         45.17522        48.61691        -0.44349
C         43.87265        47.90102        -0.68161
C         45.19662        49.98654        -0.27969
C         43.96252        50.74640        -0.10559
C         45.21144        52.89502        -0.35787
C         43.93133        52.12422        -0.14007
C         45.11179        54.29402         0.20781
C         43.93283        55.00264         0.06463
C         45.07684        57.14981         0.84514
C         43.86216        56.44156         0.28309
C         45.14061        58.60088         0.46844
C         43.84244        59.34247         0.61540
C         45.20509        61.39965         0.08128
C         43.93445        60.77756         0.15140
C         46.39914        33.78629         1.13524
C         47.63547        35.91648         1.01826
C         46.40730        35.19710         1.07269
C         47.66858        37.31781         0.95911
C         46.39282        38.05501         1.09306
C         47.65413        40.10730         0.26708
C         46.40692        39.54306         0.78763
C         47.63534        41.33008        -0.52593
C         46.41008        42.07668        -0.78170
C         47.67244        44.29066        -1.01377
C         46.43104        43.50332        -1.15205
C         47.65883        45.69106        -0.95418
C         46.39682        46.40219        -0.85288
C         47.70519        48.63887        -0.68302
C         46.40572        47.88748        -0.81024
C         47.70333        50.00381        -0.11318
C         46.44678        50.72093        -0.09278
C         47.57665        52.76350         0.67347
C         46.41527        52.09644         0.08808
C         47.63028        54.23986         0.66619
C         46.30476        54.94230         0.87939
C         47.63012        57.12684         0.80741
C         46.35295        56.41192         0.42376
C         47.64602        58.54975         0.81947
C         46.36106        59.33861         0.94479
C         47.65530        61.34678         0.19588
C         46.41359        60.73173         0.35925
C         48.86502        38.04996         0.84325
C         50.11832        40.14499         0.35825
C         48.88204        39.42930         0.48683
C         50.17531        41.47913        -0.05787
C         48.97956        42.05352        -0.72350
C         50.22365        44.28190        -0.89844
C         48.94307        43.52681        -1.04027
C         50.14549        45.75014        -0.82069
C         48.93802        46.43845        -0.88089
C         50.14919        48.61104        -0.56792
C         48.96899        47.88115        -0.69503
C         50.18012        49.98280        -0.08338
C         48.90863        50.61978         0.21190
C         50.15694        52.72248         1.03915
C         48.87453        51.95498         0.83044
C         50.10186        54.22573         0.99787
C         48.80536        54.94472         0.80606
C         50.03551        57.10836         1.43920
C         48.80820        56.38807         0.92175
C         50.10457        58.55349         0.95840
C         48.87928        59.24623         0.77760
C         50.10346        61.32153         0.31584
C         48.87945        60.66429         0.45098
C         51.35971        42.25363         0.02930
C         52.61450        44.35118        -0.25116
C         51.43764        43.60689        -0.36410
C         52.68829        45.74155        -0.59004
C         51.43299        46.44370        -0.96448
C         52.69859        48.71455        -0.75773
C         51.41620        47.97109        -0.93082
C         52.66805        50.05006        -0.14116
C         51.39667        50.64516         0.15080
C         52.70380        52.76016         0.69364
C         51.46164        51.92148         0.97444
C         52.66355        54.24342         0.68769
C         51.36108        55.00759         0.77397
C         52.57142        57.15727         1.58526
C         51.33730        56.40500         1.17556
C         52.59885        58.56218         0.99103
C         51.34689        59.22591         0.82552
C         52.54401        61.33000         0.35284
C         51.33445        60.64050         0.49172
C         53.87323        46.43936        -0.45683
C         55.18151        48.63073        -0.21458
C         53.98512        47.89052        -0.62920
C         55.13457        49.99738        -0.09971
C         53.88775        50.70295         0.12063
C         55.20272        52.82453         0.69801
C         53.90521        52.10044         0.53623
C         55.12461        54.29242         0.98016
C         53.91557        54.95539         1.02595
C         55.17338        57.17041         1.16858
C         53.88847        56.38432         1.41279
C         55.09764        58.61180         0.86586
C         53.82115        59.25324         0.79745
C         54.98469        61.37127         0.29409
C         53.78483        60.66779         0.47739
C         56.39575        50.75630        -0.41194
C         57.56638        52.95814        -0.46601
C         56.47638        52.16191         0.14186
C         58.03629        54.10650         0.10060
C         56.33524        55.07526         1.13864
C         57.74509        57.14339         0.78070
C         56.40019        56.42013         0.86023
C         57.56163        58.61967         0.42137
C         56.29738        59.29095         0.55725
C         57.40833        61.44841         0.03941
C         56.23336        60.71829         0.30219
C         58.88063        55.11939        -0.45630
C         59.88723        57.28285        -0.54643
C         58.81252        56.47275        -0.11153
C         59.90434        58.67878        -0.38532
C         58.67926        59.35047         0.00380
C         59.81344        61.50484        -0.46613
C         58.63360        60.78888        -0.13307
C         61.04385        59.43844        -0.73729
C         61.00231        60.83442        -0.74044
O         54.75428        56.74825         2.54016
O         57.54295        54.41367         1.38761
O         42.09762        50.45003         1.44649
O         37.18370        58.85380         0.96196
O         45.63750        43.88203        -2.32576
O         50.13363        53.50380         2.27890
O         56.20985        52.17339         1.55904
O         49.77978        43.79630        -2.22337
O         46.45288        39.04972         2.17472
O         38.22642        56.84007        -2.11424
O         41.17610        56.89749        -1.96344
O         48.47438        41.21869        -1.76762
O         53.54926        48.50386        -1.91525
O         47.03012        48.51850        -1.99854
O         42.10686        47.93277         1.24316
O         43.18023        41.58280        -1.96225
O         51.41482        47.24356        -2.18973
O         52.00526        54.75390        -0.56290
O         45.11473        41.54566         1.23630
O         47.96658        52.10553         1.94362
O         46.10397        54.79027         2.30448
H         45.48676        55.49476         2.61859
O         52.42815        57.41041         3.03252
H         53.35164        57.42793         3.39323
O         40.31458        48.63254        -1.93526
H         39.49867        49.04558        -2.29021
O         43.56607        59.41262         2.08253
H         44.36780        59.85138         2.47237
O         51.66545        51.41893         2.33481
H         51.33705        52.11687         2.94837
O         58.29273        57.12858         2.12915
H         58.32405        56.18612         2.40920
O         43.27387        39.94897         2.06488
H         44.03693        40.07905         2.66723
O         43.07839        39.12528        -1.46134
H         43.15888        39.78102        -2.19633
O         49.80223        57.18503         2.89067
H         50.67954        57.37140         3.31044
O         45.38719        53.07762        -1.80914
H         44.61638        53.58770        -2.13914
O         56.47323        50.84113        -1.84725
H         56.08044        50.02886        -2.23083
O         35.05344        57.15693        -2.22153
H         35.94574        57.32612        -2.59794
O         36.35955        60.95040        -1.95976
H         36.29663        61.90391        -2.17882
O         46.22464        59.55517         2.41816
H         46.24564        58.65524         2.82407
O         35.14311        49.88624        -2.03255
H         35.87265        49.29393        -2.31463
O         40.38121        44.29908         1.71341
H         39.66520        44.86441         2.07403
O         43.54573        48.17160        -2.08784
H         44.32139        47.91584        -2.63269
O         35.40449        52.96800         1.71664
H         34.60067        53.42318         2.04812
O         46.31917        56.40709        -1.02865
H         47.11463        55.93737        -1.35601
O         44.95047        57.12962         2.31513
H         44.20071        57.75402         2.51898
H         29.44728        56.59379         0.77790
H         28.27131        58.73039         1.13062
H         30.45222        62.46245         1.13181
H         28.32457        61.20493         1.37839
H         31.81935        52.33790         0.20851
H         30.64666        54.45993         0.51883
H         32.87150        62.48908         0.74204
H         34.29594        48.02788         0.02683
H         33.01698        50.23861        -0.23921
H         35.25400        62.55753         0.27035
H         36.75941        43.75391         0.03742
H         35.55377        45.88213         0.18975
H         37.83716        62.55604         0.02142
H         39.22757        39.50467         0.40341
H         37.97348        41.58647         0.03994
H         40.28391        62.55517        -0.03751
H         41.76039        35.29026         0.87288
H         40.48284        37.41898         0.87524
H         42.76499        62.54316        -0.28381
H         45.21471        31.97637         1.19412
H         43.03376        33.17008         1.06274
H         45.25085        62.45804        -0.22431
H         47.35551        33.24573         1.17848
H         48.58076        35.35364         0.99453
H         47.70137        62.38200        -0.17678
H         49.82319        37.51155         0.89382
H         51.03862        39.65589         0.70914
H         50.12101        62.39116         0.05889
H         52.26688        41.77026         0.42238
H         53.52742        43.85604         0.11302
H         52.53159        62.40544         0.12206
H         54.76557        45.90396        -0.09759
H         56.15728        48.11990        -0.25183
H         54.94711        62.44994         0.08113
H         57.28958        50.17855        -0.03068
H         57.88264        52.66068        -1.47492
H         57.34921        62.53897        -0.09135
H         59.63667        54.81916        -1.19979
H         60.74827        56.79649        -1.03087
H         59.77095        62.60187        -0.52496
H         61.96779        58.91451        -1.02109
H         61.90353        61.40575        -1.00339
