         621
 CSIRO Nanostructure Databank - Neutral Graphene Oxide Data Set
C          5.89251        31.82093         0.28859
C          5.88997        33.19251         0.28475
C          8.33352        27.54146        -0.13811
C          8.30263        28.91928        -0.28188
C          7.12273        29.68369         0.05287
C          8.25831        31.82342        -0.54146
C          7.07948        31.05867         0.00453
C          8.34746        33.25796        -0.06524
C          7.09678        33.96932         0.14523
C          8.33153        36.09196         0.32318
C          7.11428        35.34864         0.32028
C          8.35109        37.47496         0.33523
C         10.82155        23.26999        -0.11191
C         10.79806        24.65329        -0.37743
C          9.57736        25.40941        -0.23019
C         10.66014        27.47428        -1.05085
C          9.51058        26.77625        -0.42660
C         10.72031        28.95215        -0.96803
C          9.52685        29.63729        -0.63268
C         10.77845        31.71883        -0.49907
C          9.54838        31.03959        -0.49907
C         10.74378        33.01056         0.26526
C          9.55410        33.88567         0.08797
C         10.77071        36.16221        -0.23469
C          9.64556        35.36359         0.44487
C         10.77989        37.55531        -0.18866
C          9.54119        38.26857         0.16007
C         10.31939        40.66282        -0.04881
C          9.41228        39.65094         0.38120
C         10.47196        41.94967         0.46201
C         13.24286        18.93913        -0.03848
C         13.21282        20.34245        -0.10846
C         12.04176        21.11025        -0.02231
C         13.24261        23.26059        -0.37724
C         12.02905        22.53798        -0.17410
C         13.25414        24.64552        -0.62629
C         12.01324        25.32037        -0.71501
C         13.22574        27.43086        -1.51730
C         11.94922        26.68852        -1.24381
C         13.16415        28.95224        -1.61456
C         11.91716        29.67273        -1.21448
C         13.23123        31.82751        -1.14040
C         11.95573        31.06884        -0.94840
C         13.35031        33.37835        -1.07557
C         12.13576        34.23125        -1.12344
C         13.24176        36.08382        -0.06143
C         12.02342        35.46208        -0.43480
C         13.29738        37.48650        -0.07455
C         12.07484        38.22274        -0.35226
C         13.44376        40.28717        -0.44075
C         12.22039        39.56818        -0.65740
C         13.44529        41.68153        -0.44750
C         11.56212        42.80993         0.09533
C         13.20220        44.65797         0.63904
C         11.93769        43.96869         0.74988
C         13.25009        45.99789         0.97272
C         15.66951        14.66575        -0.28719
C         15.65806        16.06514        -0.45852
C         14.44986        16.78949        -0.28743
C         15.71038        18.86200        -0.38827
C         14.44821        18.19151        -0.24894
C         15.76554        20.29337        -0.05777
C         14.50205        21.04090        -0.34251
C         15.76495        23.28112        -0.15955
C         14.51576        22.52063        -0.45976
C         15.72811        24.72217        -0.50068
C         14.53167        25.36518        -0.78095
C         15.69924        27.48062        -1.26305
C         14.51960        26.77539        -1.17351
C         15.78089        28.93748        -1.50528
C         14.46687        29.69841        -1.53411
C         15.67802        31.64258        -0.48630
C         14.47232        31.06777        -1.04340
C         15.63660        33.09297        -0.04797
C         14.56787        33.97327        -0.52058
C         15.70045        35.97888         0.41942
C         14.40287        35.22634         0.34149
C         15.75814        37.35294         0.26142
C         14.56738        38.13938         0.00672
C         15.90129        40.23811        -0.11053
C         14.65673        39.55619        -0.12994
C         15.88251        41.70003         0.18955
C         14.51904        42.44782         0.16805
C         15.68542        44.49125         1.06175
C         14.52068        43.99715         0.14375
C         15.68936        45.94265         1.44218
C         14.47270        46.74036         1.16013
C         15.71627        48.83870         1.57463
C         14.51697        48.11303         1.20973
C         15.76620        50.20316         1.55771
C         18.18583        10.64712         0.97199
C         18.15111        11.89801         0.26623
C         16.92637        12.59401         0.10146
C         18.08274        14.61290        -0.73719
C         16.88455        13.94543        -0.33163
C         18.10966        16.02054        -0.93806
C         16.88920        16.76043        -0.72834
C         18.11455        18.95432        -1.01339
C         16.89362        18.17667        -0.67458
C         18.27978        20.33343        -0.56552
C         17.08549        21.02090        -0.02511
C         18.37777        23.23976        -0.23056
C         17.06662        22.53449         0.01585
C         18.32611        24.72405        -0.45556
C         17.00672        25.44849        -0.43044
C         18.20809        27.50436        -1.51587
C         16.98442        26.87710        -0.86033
C         18.25629        28.95883        -1.13622
C         17.01979        29.64133        -1.04379
C         18.21277        31.66717        -0.34855
C         16.98911        30.97220        -0.62009
C         18.22106        33.02051         0.13136
C         16.93031        33.70839         0.41983
C         18.20908        35.90990         0.86532
C         16.90722        35.18968         0.72978
C         18.24819        37.34058         0.53058
C         17.03816        38.03553         0.27556
C         18.38035        39.94741        -0.25713
C         17.08718        39.41627        -0.05297
C         18.36290        42.10607        -0.02365
C         17.07731        42.59138         0.27638
C         18.21268        44.53258         1.24082
C         17.00994        43.85168         0.89553
C         18.18972        45.92481         1.65492
C         16.97537        46.62163         1.69314
C         18.25760        48.81089         2.07671
C         16.91068        48.05150         1.99042
C         18.26220        50.25337         1.81750
C         16.96268        51.00303         2.03920
C         18.15821        53.03140         1.10018
C         16.99758        52.37133         1.41011
C         18.13847        54.34758         0.53844
C         20.64090         7.22999         3.45709
C         20.63423         8.26630         2.50707
C         19.43592         8.89868         2.15552
C         20.62916        10.45036         0.60546
C         19.37629         9.98542         1.24253
C         20.62411        11.78589        -0.12983
C         19.34555        12.50088        -0.18058
C         20.61688        14.46512        -1.21437
C         19.30642        13.80349        -0.84293
C         20.55660        15.93928        -1.51920
C         19.32807        16.69220        -1.23890
C         20.69242        18.85977        -1.31822
C         19.39268        18.14501        -1.41557
C         20.69957        20.25931        -1.06852
C         19.51537        21.00366        -0.74472
C         20.73400        23.15991        -0.94860
C         19.58188        22.45739        -0.64643
C         20.69501        24.59651        -1.32660
C         19.49511        25.41468        -1.05778
C         20.72583        27.53628        -1.46685
C         19.50561        26.77225        -1.25837
C         20.71787        28.90784        -1.30319
C         19.47742        29.62531        -1.01244
C         20.67598        31.72394        -0.50379
C         19.45777        31.00870        -0.62350
C         20.67713        33.05556        -0.03969
C         19.44011        33.69158         0.30874
C         20.73288        35.87340         0.49091
C         19.49778        35.10829         0.74451
C         20.73774        37.25311         0.50916
C         19.50772        37.99083         0.50000
C         20.79066        40.16688         0.42263
C         19.56609        39.38250         0.19457
C         20.67921        41.60105         1.00919
C         19.51592        42.52076         0.63292
C         20.71341        44.51552         1.37675
C         19.46257        43.83932         1.16612
C         20.71183        45.89907         1.68500
C         19.45805        46.61859         1.81009
C         20.69256        48.75534         1.67889
C         19.48100        48.02552         1.88310
C         20.66187        50.14842         1.45912
C         19.44316        50.89827         1.50492
C         20.63433        52.98891         0.61973
C         19.49914        52.42399         1.45776
C         20.56673        54.25980         0.08569
C         19.30736        55.00285         0.11692
C         20.50633        57.03040        -0.63174
C         19.30842        56.35489        -0.28628
C         20.51634        58.41314        -0.87560
C         23.11044         4.97179         5.20359
C         21.88091         5.58101         4.82526
C         23.09775         7.40848         3.68647
C         21.84326         6.69387         3.98397
C         23.16151         8.32632         2.55320
C         21.91268         8.57636         1.74342
C         23.09357        10.58043         0.77299
C         21.92381         9.94890         1.10242
C         23.11354        11.92357         0.17985
C         21.89325        12.54654        -0.20585
C         23.09055        14.60220        -0.77936
C         21.88739        13.87062        -0.70081
C         23.12964        15.89224        -1.52391
C         21.86155        16.68469        -1.70750
C         23.16654        18.82878        -1.58294
C         21.90353        18.14595        -1.48450
C         23.20708        20.19918        -1.43090
C         22.00835        20.93528        -1.00408
C         23.26189        23.22344        -1.39981
C         22.03716        22.48089        -0.99248
C         23.25198        24.57551        -1.58868
C         21.96217        25.30470        -1.70975
C         23.24620        27.45779        -1.26145
C         22.00609        26.82842        -1.88677
C         23.24619        28.95652        -1.13225
C         21.97934        29.70398        -1.60815
C         23.22513        31.77948        -0.66633
C         21.92954        31.13473        -1.05564
C         23.17089        32.96920         0.23849
C         21.92601        33.77445         0.14576
C         23.20290        35.85866         0.65538
C         21.96577        35.13557         0.38530
C         23.23968        37.24129         0.61364
C         22.00933        37.99137         0.13896
C         23.23007        40.10584         0.94701
C         21.95963        39.45929         0.54612
C         23.23660        41.63056         1.06244
C         21.96696        42.39092         0.93820
C         23.19949        44.51362         0.97348
C         21.93194        43.76334         1.09042
C         23.22767        45.91942         1.53992
C         21.94350        46.63689         1.81327
C         23.16831        48.79635         1.51571
C         21.94429        48.03288         1.73966
C         23.01469        49.95884         0.56801
C         21.92537        50.84928         1.12483
C         23.05971        52.75240        -0.13546
C         21.91481        52.26741         0.64958
C         22.96289        54.11576        -0.67771
C         21.73952        54.90640        -0.47335
C         22.98506        56.99461        -0.98591
C         21.74718        56.27617        -0.72734
C         22.96830        58.41315        -1.13964
C         21.72480        59.12379        -1.12086
C         22.94028        61.20658        -1.50230
C         21.73460        60.52480        -1.31267
C         24.33156         5.47305         4.83010
C         25.63671         7.18221         3.44014
C         24.43729         6.77559         4.16949
C         25.61718         8.23664         2.56843
C         24.36715         8.82795         2.12413
C         25.67589        10.58380         0.77344
C         24.37939         9.88976         1.07684
C         25.68246        11.97062         0.13286
C         24.32182        12.65580         0.07611
C         25.54210        14.79166        -0.38611
C         24.30764        14.00721        -0.35272
C         25.59768        16.02205        -0.98025
C         24.43809        16.60832        -1.70397
C         25.69014        18.84169        -1.76151
C         24.40637        18.10259        -2.13421
C         25.73090        20.18345        -1.56088
C         24.46229        20.94778        -1.68494
C         25.82725        23.12009        -1.50188
C         24.50699        22.44055        -1.64084
C         25.83457        24.58505        -1.74559
C         24.50956        25.34566        -1.82097
C         25.74689        27.47585        -1.38507
C         24.54267        26.77950        -1.47013
C         25.75465        28.92657        -1.14765
C         24.56524        29.63603        -1.12631
C         25.79292        31.74699        -0.38031
C         24.54747        31.09900        -0.89772
C         25.75950        32.84037         0.68544
C         24.41517        33.58612         0.78790
C         25.71584        35.82238         1.07654
C         24.39365        35.07376         1.04878
C         25.69617        37.26047         0.77798
C         24.49446        37.96699         0.70198
C         25.73941        40.13458         0.72701
C         24.50282        39.41193         0.70939
C         25.73753        41.60501         0.81851
C         24.52094        42.30167         0.87528
C         25.79324        44.47663         1.12154
C         24.49244        43.76199         0.79347
C         25.72429        45.74157         1.87097
C         24.50385        46.33625         2.13748
C         25.62331        48.98129         1.48060
C         24.38748        48.49484         2.05638
C         25.50241        49.94705         0.41368
C         24.30347        50.66399         0.21290
C         25.46786        52.74154        -0.65443
C         24.24902        52.01376        -0.28705
C         25.52606        54.22645        -0.39636
C         24.26082        54.87203        -0.91050
C         25.47097        57.02709        -1.09611
C         24.22383        56.33382        -0.96419
C         25.43509        58.41353        -1.28702
C         24.19928        59.11983        -1.30987
C         24.15580        60.52757        -1.49521
C         26.90029         8.65160         1.87549
C         27.88618        10.96212         1.81284
C         26.87318        10.11797         1.51871
C         27.83611        12.35969         1.40453
C         26.74860        12.86069         0.71614
C         28.07642        14.90499         0.12048
C         26.70388        14.34537         0.47686
C         28.13996        16.06804        -0.65979
C         26.90521        16.66816        -1.21590
C         28.23268        18.86814        -1.97331
C         26.94996        18.05926        -1.77139
C         28.28830        20.11737        -1.06457
C         26.91380        20.92056        -0.93032
C         28.26593        23.11600        -1.29187
C         26.98541        22.40878        -1.32363
C         28.26830        24.60775        -1.14593
C         27.03148        25.37137        -1.42946
C         28.28187        27.54728        -1.64325
C         27.00778        26.75032        -1.43102
C         28.24521        28.94793        -1.10557
C         27.04210        29.62552        -0.94109
C         28.24125        31.67957        -0.14630
C         27.05909        30.98068        -0.44335
C         28.24383        33.01795         0.36244
C         26.99507        33.71092         0.58099
C         28.22195        35.78215         1.09143
C         26.96835        35.05443         0.86196
C         28.20547        37.29300         1.03080
C         26.97980        37.94644         0.41670
C         28.24507        40.11311         0.52135
C         26.95118        39.43471         0.63449
C         28.25675        41.64117         0.67682
C         26.98050        42.32222         0.90898
C         28.22552        44.39184         1.53564
C         27.02822        43.69320         1.25737
C         28.20992        45.78417         1.87745
C         26.98186        46.32179         2.24889
C         28.09010        48.75269         1.05063
C         26.87953        48.45911         1.77967
C         27.97922        49.84135         0.10814
C         26.69883        50.20627        -0.30234
C         27.95931        52.73092        -1.00649
C         26.62719        52.14746        -1.07141
C         27.98503        54.14834        -1.04875
C         26.77880        54.90237        -0.93551
C         26.71116        56.27773        -1.13945
C         28.96133        13.20570         1.65888
C         30.39491        15.10739         1.12222
C         29.17228        14.38097         0.91476
C         30.91402        16.00446         0.19835
C         29.33914        16.65451        -1.13369
C         30.85409        18.70491        -1.39501
C         29.49996        17.99639        -1.68440
C         30.80213        20.22492        -1.54573
C         29.48893        20.96508        -1.49500
C         30.75244        23.15954        -1.50797
C         29.45678        22.44110        -1.31881
C         30.82231        24.64523        -1.44449
C         29.55779        25.37269        -1.14912
C         30.78929        27.50801        -1.22122
C         29.57409        26.83785        -1.31292
C         30.82159        28.94026        -1.04167
C         29.53481        29.66579        -1.07283
C         30.79000        31.66945        -0.06182
C         29.52920        31.10540        -0.57350
C         30.74406        33.01328         0.46020
C         29.49178        33.70234         0.57856
C         30.70760        35.81715         0.99411
C         29.49726        35.08101         0.92269
C         30.70662        37.25888         1.03123
C         29.50062        37.99543         0.91759
C         30.72422        40.12039         0.97537
C         29.50740        39.39551         0.80770
C         30.69859        41.56315         1.15260
C         29.50028        42.26441         1.14630
C         30.82068        44.43075         1.72134
C         29.47567        43.63521         1.64100
C         30.75750        45.92844         1.60277
C         29.43241        46.66131         1.77032
C         30.44466        48.58369         0.44814
C         29.29907        48.02074         1.12816
C         30.36696        49.86653        -0.17933
C         29.14871        50.53467        -0.40195
C         29.10112        51.89088        -0.88248
C         31.83502        17.04689         0.37563
C         33.10510        18.93675        -0.32011
C         31.94626        18.18867        -0.47998
C         33.32872        20.27250        -0.86645
C         32.09643        20.97097        -1.38265
C         33.25057        23.20038        -0.81128
C         31.99902        22.43634        -1.10375
C         33.29608        24.65307        -1.10411
C         32.11349        25.36757        -1.26454
C         33.25966        27.54486        -1.26175
C         32.06654        26.80360        -1.25664
C         33.30396        28.94451        -0.92625
C         32.01599        29.62162        -0.75103
C         33.25982        31.51985         0.37367
C         31.98008        30.96687        -0.22625
C         33.21134        33.02514         0.56355
C         31.96081        33.70875         0.71032
C         33.17624        35.86583         0.98671
C         31.94941        35.12472         0.91280
C         33.17471        37.27271         1.06760
C         31.94297        37.97411         1.04981
C         33.19282        40.11802         1.20323
C         31.94076        39.40269         1.07657
C         33.10630        41.49550         1.48360
C         31.93905        42.27447         1.37377
C         33.15590        44.40387         0.76942
C         32.02875        43.69800         1.33683
C         32.96857        45.78921         0.45246
C         31.83568        46.54444         0.79249
C         31.66733        47.86901         0.34553
C         34.49850        21.08185        -0.47072
C         35.71746        23.21263        -0.52573
C         34.52624        22.45111        -0.65906
C         35.82665        24.57569        -0.85945
C         34.59848        25.27116        -1.37406
C         35.71386        27.66976        -1.53915
C         34.51234        26.86727        -1.59074
C         35.79647        28.98235        -1.10829
C         34.52551        29.66306        -0.84298
C         35.40142        31.98397        -0.80384
C         34.46119        31.06919        -0.43646
C         35.56231        33.37085        -0.26543
C         34.38904        33.76108         0.59242
C         35.66783        35.87948         0.76958
C         34.41708        35.17065         0.81367
C         35.68616        37.26091         0.80913
C         34.47869        38.00093         1.31128
C         35.63993        40.16475         0.61414
C         34.45419        39.48318         1.03362
C         35.67417        41.54901         0.24034
C         34.79212        42.50844         0.77439
C         34.35048        43.76774         0.31007
C         37.05529        25.19456        -0.52665
C         38.28518        27.36208        -0.17450
C         37.44343        26.51110        -0.87173
C         38.29336        28.78645        -0.40946
C         37.15914        29.52489        -0.90933
C         38.37696        31.62820        -0.41579
C         37.33517        30.91681        -1.01556
C         38.21222        32.99580         0.14932
C         36.90730        33.67273         0.40782
C         38.17930        35.89211         0.40765
C         36.97315        35.12829         0.92154
C         38.11111        37.25733         0.26135
C         36.88750        37.99673         0.49784
C         36.82381        39.37743         0.35372
C         39.46349        29.49651        -0.02991
C         40.68664        31.64756         0.43306
C         39.51450        30.89674         0.01835
C         40.68005        33.01316         0.48953
C         39.46145        33.77750         0.34319
C         39.42089        35.15567         0.34928
O         26.98430        16.92395        -2.68878
O         18.93253        35.47804         2.04972
O         25.23006        24.97484        -3.03050
O         18.01051        27.43760        -2.91197
O         18.50454        18.72660        -2.41077
O         30.45929        15.87642        -1.15959
O         36.85580        27.05160        -2.04126
O         24.99351        35.45807         2.31477
O         16.74292        34.18729         1.79716
O         11.56712        33.20959         1.16557
O         23.52500        32.79108         1.65919
O         15.28715        29.50333        -2.74895
O         23.78625         7.87764         4.88319
O         23.03095        28.08885         0.03940
O         23.17871        40.76413         2.28090
O         26.55184        20.94608         0.43013
O         23.58732        54.22799        -2.01930
O         15.37581        44.85393         2.42058
O         17.47991        48.44214         3.27964
O         19.91763        13.68769        -2.21497
O         26.57112        50.82942        -1.55009
O         25.29336        44.39519        -0.25499
O         30.18591        43.87849         2.89799
O         14.59947        21.68285        -1.67443
O         25.15126         9.55737        -0.13737
O         28.07364        36.64012         2.31081
O         22.34390        51.87157         2.06895
O         28.35945        41.00908        -0.64409
O         16.33857        23.03338         1.16925
O         16.48251        20.48429         1.20938
O         23.21523        45.66437         0.07641
O         24.39370        21.72795        -2.94192
O         37.39636        32.76510         1.43042
O         34.57589        25.89932        -2.67877
O         36.37161        31.63172        -1.74235
O         24.45842        47.43734         3.00245
O         25.35470        31.99941        -1.75007
O         15.27008        32.03420         0.92037
O         35.35958        34.39091        -1.24533
O         28.91676        24.99794         0.13347
O         13.37524        32.67354        -2.38863
O         17.04126        26.55644         0.55614
O         14.79868        44.42473        -1.14150
O         30.60652        18.03835        -2.64088
O         32.32633        22.79268         0.28277
O         20.59495        10.50293        -0.85849
O         21.11833        24.71590        -2.76243
O         30.41614        46.60581         2.85104
O         13.13722        28.11666        -2.80011
O         30.81214        23.93447        -2.74531
O         23.91528        15.74385        -2.76050
O         34.23146        42.11991         2.02087
O         21.08803        16.25772        -2.86688
O         30.12173        20.62258        -2.76495
O         18.46987        41.11733        -0.99870
O         15.02715        41.87770         1.39136
O         11.13172        40.28981        -1.14231
O         12.37185        42.37177        -0.98820
O         22.58266        32.10054        -1.93939
O         33.07804        20.50452        -2.32981
O         22.25331        21.69871         0.23400
O         18.69710        24.16604         0.85892
O         29.55954        30.80709        -2.01219
O         26.98407        47.57922         2.87037
O         10.99748        26.86897        -2.34023
O         25.95836        32.12349         1.93394
H         25.10020        32.12114         2.41921
O         28.59930        19.61239         0.24732
H         27.88883        20.03744         0.83213
O         28.18534        19.26600        -3.33609
H         27.96759        18.47904        -3.87969
O         16.80858        51.17223         3.48157
H         16.91384        50.27322         3.87523
O         28.03680         8.32119         2.66724
H         27.92657         8.72207         3.55339
O         27.18773        37.74638        -1.03404
H         26.56735        38.33451        -1.51574
O          7.99849        31.96595        -1.98642
H          7.76853        31.07841        -2.33601
O         10.01587        35.41837         1.85462
H         10.80230        34.82984         1.97227
O         19.79936        52.84756         2.82042
H         20.72227        52.55224         3.01072
O         33.38125        30.91597         1.70182
H         32.64079        31.24559         2.25292
O         22.46786        49.45738        -0.68947
H         23.08139        48.78197        -1.04872
O         26.41215        14.97118         1.78756
H         27.08135        14.63849         2.42535
O         34.61891        37.91848         2.79081
H         33.95866        38.52882         3.18481
O         28.31471        27.72607        -3.11027
H         28.95176        28.44346        -3.31940
O         11.26286        33.94936        -2.08677
H         11.66630        33.21967        -2.63419
O         37.15776        35.07645         2.36365
H         37.46536        34.15923         2.57380
O         26.05305        11.78505        -1.26599
H         25.64770        10.93410        -1.55235
O         22.15870        27.06063        -3.31462
H         21.54826        26.43416        -3.77092
O         21.95533         7.61283         0.64236
H         21.31064         7.90461        -0.03738
O         25.51545        54.46716         1.04338
H         26.36380        54.14588         1.41393
O         20.44336        41.34007         2.43194
H         21.29240        40.98771         2.79686
O         14.06301        34.77614         1.68796
H         14.86892        34.32864         2.05337
O         22.06619        29.82262        -3.03974
H         22.05022        28.91083        -3.42647
O         22.09232        37.97085        -1.32708
H         21.29371        38.42110        -1.67613
O         24.28726        18.14957        -3.56468
H         23.94897        17.27229        -3.86410
H          4.96258        31.27466         0.50602
H          4.95294        33.73250         0.48582
H          7.43785        27.01398         0.22324
H          6.23056        29.12814         0.38119
H          6.16291        35.89138         0.43507
H          7.39079        38.01292         0.38866
H          9.88044        22.74701         0.11276
H          8.68702        24.87850         0.13990
H          8.50440        39.98429         0.91014
H          9.82949        42.26479         1.29693
H         12.30428        18.38639         0.11582
H         11.07987        20.59727         0.12811
H         11.22449        44.37992         1.48340
H         12.30355        46.54263         1.12160
H         14.74027        14.14405        -0.01712
H         13.51266        16.23624        -0.12967
H         13.61011        48.69714         0.99314
H         14.86142        50.76327         1.27364
H         17.24894        10.26683         1.40436
H         15.99133        12.11029         0.41886
H         16.03178        52.86105         1.20427
H         17.17170        54.86725         0.44927
H         19.67969         6.85313         3.84046
H         18.50551         8.58784         2.65539
H         18.36624        56.92317        -0.25678
H         19.56970        58.97291        -0.83116
H         23.06680         4.01649         5.74635
H         20.93847         5.08612         5.10089
H         22.92807        62.29573        -1.64874
H         20.78439        61.07765        -1.30460
H         25.24855         4.89041         5.00120
H         26.57350         6.62511         3.59380
H         26.37182        58.97030        -1.43848
H         25.09640        61.08052        -1.63057
H         26.98657         8.07110         0.91665
H         28.77461        10.59565         2.34724
H         28.94094        54.67883        -1.17839
H         27.62887        56.82654        -1.40317
H         29.78177        12.82060         2.28111
H         30.90217        14.98972         2.09026
H         31.30203        50.31385        -0.55009
H         30.08165        52.38510        -0.98574
H         32.53345        16.98869         1.22383
H         33.87528        18.54718         0.36371
H         33.76828        46.29382        -0.11144
H         32.48727        48.33237        -0.22423
H         35.42337        20.55172        -0.19626
H         36.63199        22.68614        -0.21222
H         36.42393        41.85849        -0.50386
H         34.95067        44.29732        -0.44559
H         37.73321        24.62062         0.12469
H         38.92776        26.95964         0.62238
H         39.01313        37.82408        -0.01884
H         37.72913        39.91603         0.03445
H         40.33832        28.91854         0.30231
H         41.61466        31.09345         0.63675
H         41.60773        33.55759         0.72106
H         40.36644        35.72149         0.36557
