         344
 CSIRO Nanostructure Databank - Neutral Graphene Oxide Data Set
C          1.17697         2.49859        -0.91908
C          1.08945         3.67579        -0.21672
C          2.38772         1.79339        -1.04275
C          2.26983         4.28634         0.48152
C          1.23595         6.60390         0.15636
C          1.31862         7.96417        -0.13809
C          2.38311         5.79619         0.17796
C          2.55473         8.57785        -0.41282
C          1.48777        10.71281        -1.26970
C          1.56630        12.06886        -1.58071
C          2.64760         9.98827        -0.84858
C          2.78099        12.76213        -1.55846
C          1.94158        14.81893        -2.68444
C          2.11456        16.14367        -3.04131
C          2.89975        14.15708        -1.87469
C          3.22399        16.87436        -2.55865
C          3.42065        18.25081        -2.93710
C          3.60087         2.30576        -0.48160
C          3.55787         3.54554         0.20105
C          4.80428         1.57220        -0.66190
C          4.80991         4.23261         0.66569
C          3.63271         6.42106        -0.01427
C          3.72911         7.79775        -0.30235
C          4.87863         5.61356         0.02785
C          5.07148         8.43888        -0.64595
C          3.87844        10.62041        -0.86041
C          4.07331        12.00947        -1.40025
C          5.06150         9.92384        -0.25847
C          5.15427        12.75799        -0.63226
C          4.01966        14.88476        -1.37663
C          4.15779        16.23320        -1.69867
C          4.93300        14.23595        -0.34965
C          5.18143        17.06729        -0.97209
C          4.53339        18.94236        -2.54846
C          5.52388        18.35143        -1.68897
C          6.07786         2.01309        -0.11613
C          6.09916         3.43719         0.47743
C          7.36268         1.45044        -0.51361
C          7.38250         4.15760         0.40429
C          6.19507         6.31427         0.09133
C          6.26260         7.77832         0.00569
C          7.39678         5.56680         0.48080
C          7.38815         8.46726         0.37726
C          6.40970        10.61174        -0.55876
C          6.29747        12.09885        -0.26493
C          7.50296         9.90914         0.23125
C          7.43040        12.76886         0.35334
C          6.25317        14.95582        -0.16882
C          6.39302        16.27071        -0.52831
C          7.28838        14.24070         0.67919
C          7.60926        16.99706        -0.24580
C          6.72384        18.97089        -1.46121
C          7.76635        18.36344        -0.67079
C          8.58097         2.07081        -0.18239
C          8.59446         3.45708         0.25098
C          9.82676         1.42908        -0.41008
C          9.82747         4.19098         0.27555
C          8.59762         6.27614         0.65950
C          8.49167         7.71230         1.10307
C          9.82004         5.60570         0.55246
C          9.80260         8.45180         1.09014
C          8.56827        10.61846         0.73941
C          8.54982        12.07201         0.75941
C          9.69978         9.91376         1.48699
C          9.66996        12.78682         1.51150
C          8.60738        14.96615         0.77056
C          8.65502        16.34770         0.44953
C          9.76566        14.26332         1.16520
C          9.78047        17.15491         0.91754
C          8.94593        19.06584        -0.41971
C          9.99081        18.51891         0.38658
C         11.05266         2.11908        -0.26105
C         11.03558         3.52091         0.02259
C         12.30317         1.45297        -0.38541
C         12.30994         4.28783        -0.16332
C         11.05897         6.36352         0.59211
C         11.00148         7.81178         0.88062
C         12.24264         5.71984         0.31846
C         12.24184         8.57016         0.96997
C         11.00363        10.66884         1.36586
C         11.00168        12.05715         1.39865
C         12.23307         9.92661         1.23912
C         12.24211        12.79881         1.36183
C         11.00060        14.93093         1.31275
C         11.02844        16.38727         1.42335
C         12.24812        14.22807         1.34349
C         12.28923        17.11001         1.39203
C         11.13801        19.21204         0.70282
C         12.23491        18.61211         1.55414
C         13.52469         2.06862         0.00988
C         13.52507         3.51008         0.32287
C         14.69648         1.33448         0.11326
C         14.65631         4.14341         0.74791
C         13.52521         6.44548         0.33717
C         13.52287         7.96321         0.44409
C         14.74430         5.62989         0.65827
C         14.80007         8.52755         1.03352
C         13.50159        10.63142         1.66058
C         13.49280        12.12288         1.43973
C         14.80266         9.97289         1.25238
C         14.69280        12.82986         1.53918
C         13.47743        14.95140         1.33461
C         13.48527        16.39542         1.29665
C         14.72732        14.25897         1.42761
C         14.73371        17.09424         1.19014
C         13.53892        19.25739         1.21555
C         14.72420        18.53893         1.07950
C         15.89236         1.89086         0.83925
C         15.99095         3.42209         0.64243
C         17.19840         1.29007         0.39076
C         17.18703         3.99934         1.43816
C         15.94676         6.32534         1.20375
C         15.95918         7.80897         1.11217
C         17.20381         5.54199         1.46701
C         17.29001         8.52673         1.10374
C         15.97006        10.65031         1.44150
C         15.95804        12.09247         1.76228
C         17.24669         9.90592         1.78247
C         17.27743        12.81840         1.80845
C         15.95678        14.96906         1.39523
C         15.95658        16.37960         1.19840
C         17.28492        14.34628         1.80239
C         17.19847        17.08117         0.99929
C         15.95765        19.21081         0.87201
C         17.17780        18.50647         0.81711
C         18.40319         2.01727         0.44161
C         18.44032         3.36725         0.87648
C         19.64167         1.36246         0.07348
C         19.74410         4.04128         1.18547
C         18.49803         6.25132         1.29274
C         18.50680         7.74265         1.63604
C         19.63870         5.56034         1.04752
C         19.71685         8.53038         1.17941
C         18.51642        10.67989         1.47206
C         18.51927        12.06888         1.44287
C         19.71862         9.92521         1.18605
C         19.70531        12.79610         1.06509
C         18.47532        14.95639         1.09464
C         18.42988        16.36791         0.88162
C         19.66661        14.23630         0.90610
C         19.62497        17.06817         0.54014
C         18.38888        19.19981         0.58436
C         19.60618        18.50835         0.43550
C         20.86273         2.02568         0.05144
C         20.92631         3.43912         0.44347
C         22.07129         1.35040        -0.30320
C         22.08438         4.13333         0.28622
C         20.86110         6.30810         0.66585
C         20.89669         7.80644         0.70399
C         22.15428         5.56454         0.68710
C         22.18320         8.53407         0.61479
C         20.93458        10.65834         0.87257
C         20.90589        12.08682         0.80682
C         22.14862         9.96459         0.64090
C         22.13395        12.80319         0.53827
C         20.86950        14.93652         0.51510
C         20.83867        16.35917         0.34713
C         22.10023        14.24573         0.38230
C         22.02966        17.06491        -0.02897
C         20.80840        19.20522         0.20478
C         22.02315        18.52143        -0.04200
C         23.29494         2.02835        -0.44534
C         23.26156         3.54053        -0.46818
C         24.51201         1.39326        -0.71583
C         24.58812         4.14217         0.02160
C         23.39815         6.36545         0.46702
C         23.36101         7.84550         0.35709
C         24.52699         5.64518        -0.18940
C         24.57555         8.55792         0.05881
C         23.37108        10.68344         0.40591
C         23.34098        12.11442         0.41576
C         24.55399         9.97870         0.09687
C         24.64053        12.87217         0.48524
C         23.28602        14.95388         0.01148
C         23.22043        16.35371        -0.26021
C         24.55551        14.28607        -0.04117
C         24.39880        17.05556        -0.80899
C         23.21801        19.23463        -0.17641
C         24.41727        18.59032        -0.68125
C         25.74772         2.11764        -0.88570
C         25.78644         3.51973        -0.65269
C         26.93962         1.46034        -1.27049
C         26.98046         4.26079        -0.83541
C         25.76685         6.42518        -0.51416
C         25.77886         7.87031        -0.26527
C         27.02332         5.68592        -0.68296
C         27.02476         8.56247        -0.39445
C         25.73316        10.71023        -0.48775
C         25.82672        12.13997        -0.06566
C         27.04186         9.97416        -0.35881
C         27.02581        12.82761        -0.22252
C         25.73750        14.94674        -0.35587
C         25.72455        16.31173        -0.99947
C         27.00474        14.27443        -0.30085
C         26.96598        17.11597        -0.64973
C         25.71086        19.26031        -0.62426
C         26.92903        18.55647        -0.61739
C         28.15671         2.16231        -1.39369
C         28.18834         3.57488        -1.17809
C         29.37937         1.49363        -1.73346
C         29.41333         4.29841        -1.28850
C         28.23219         6.40472        -0.77132
C         28.24156         7.83514        -0.61023
C         29.45029         5.71008        -1.06783
C         29.47386         8.54795        -0.68781
C         28.27081        10.67787        -0.39168
C         28.27033        12.12634        -0.38053
C         29.48408         9.95876        -0.48848
C         29.48658        12.85407        -0.45219
C         28.21309        14.98569        -0.46295
C         28.18386        16.44026        -0.53138
C         29.46165        14.29373        -0.46912
C         29.41960        17.16684        -0.46064
C         28.14994        19.26848        -0.49735
C         29.38707        18.59948        -0.44405
C         30.55975         2.18855        -1.84059
C         30.61060         3.59885        -1.62137
C         31.82543         4.33095        -1.72444
C         30.67491         6.43339        -1.20794
C         30.68563         7.85193        -1.02850
C         31.85695         5.69459        -1.52879
C         31.85235         8.65294        -1.31861
C         30.80226        10.66150        -0.28210
C         30.73975        12.16512        -0.45803
C         31.89766         9.98532        -1.06609
C         31.91478        12.90482        -0.46998
C         30.69311        15.02273        -0.47672
C         30.67053        16.48657        -0.43398
C         31.89533        14.30925        -0.48779
C         31.85050        17.24362        -0.37083
C         30.61122        19.32513        -0.37017
C         31.81580        18.64910        -0.33323
O         10.03665        16.97848         2.34653
O          6.09291         2.30837         1.37194
O          5.64943         5.69683        -1.20442
O         23.04474         5.87761         1.80890
O         16.34679         5.97776         2.59544
O         16.64086        12.35577         3.06190
O         24.11029        17.86940        -1.97306
O         14.46969         6.05017        -0.74361
O         20.64702         7.04932        -0.58380
O         24.73732         6.05036        -1.55461
O         17.46741        14.77268         3.19198
H         16.96962        14.12676         3.74613
O          6.74594        14.25130         2.07418
H          6.82783        15.17395         2.40280
O         31.14540        10.46434         1.14443
H         31.19984         9.49638         1.29486
O          8.03420         7.63856         2.50778
H          8.68425         7.09224         2.99958
O         20.00094         3.80011         2.61111
H         19.12763         3.79125         3.06971
O         23.11017         3.93449        -1.85470
H         22.28233         3.53955        -2.19863
O          5.23637         8.29956        -2.08767
H          5.34732         7.32874        -2.24863
O          4.57546        11.88334        -2.78085
H          5.44631        11.40341        -2.72534
O          9.35458         9.94506         2.90422
H          8.56388         9.36356         3.02106
O         15.67555         1.53407         2.23462
H         16.35234         2.01621         2.77127
O          6.73983        10.47686        -1.96894
H          6.46794         9.56555        -2.25542
O         24.69287         3.83184         1.42638
H         25.52794         4.20313         1.77683
O         13.49040        10.46405         3.12723
H         12.64744        10.84413         3.45844
O         25.45543        10.75604        -1.94932
H         25.41564         9.82707        -2.26455
O         12.51661         4.36364        -1.62179
H         13.30569         4.94419        -1.75266
O         17.55877         8.72887        -0.31064
H         16.77728         9.16023        -0.71618
O          9.27913        12.75964         2.91704
H          8.36939        13.13419         2.96762
O         18.54105         7.72153         3.07905
H         17.66587         7.39937         3.39372
O         25.84535        16.04489        -2.43250
H         25.41430        16.80403        -2.89120
O         17.13360         9.72087         3.21130
H         17.00107        10.61912         3.60253
O         11.93543        18.89110         2.96934
H         11.11796        18.37708         3.17763
O         17.14770         3.60706         2.84622
H         16.60156         4.28783         3.31115
O         24.90289        13.00928         1.94209
H         25.75516        13.48637         2.03945
O         13.57183         8.45887        -0.93881
H         14.12675         7.82138        -1.44570
O          1.99974         4.20767         1.92348
H          2.85488         4.43251         2.36830
O          4.91606         9.99425         1.18568
H          4.03600         9.63285         1.42410
O          4.71626         4.48148         2.11091
H          4.97573         3.63553         2.54427
O          4.22232        14.33735         0.93074
H          4.87710        14.07856         1.62687
O         16.37342         3.65517        -0.74203
H         15.65084         3.32408        -1.31696
O          4.52743        17.46171         0.28429
H          4.19903        16.63313         0.70341
H          0.27132         2.08020        -1.38301
H          0.11086         4.16307        -0.10175
H          2.41020         0.83407        -1.57825
H          0.24998         6.16406         0.35866
H          0.39304         8.55528        -0.16643
H          0.51089        10.21251        -1.30366
H          0.63717        12.61417        -1.80289
H          1.08125        14.25683        -3.07330
H          1.38602        16.64066        -3.69792
H          2.67932        18.72032        -3.60001
H          4.79574         0.69854        -1.32879
H          4.70903        19.96258        -2.92168
H          7.37458         0.50498        -1.07543
H          6.92719        19.95089        -1.92058
H          9.83848         0.36978        -0.70632
H          9.05624        20.09032        -0.80403
H         12.31318         0.38253        -0.63952
H         11.26527        20.24008         0.33161
H         14.68297         0.25970        -0.12542
H         13.56848        20.35540         1.14510
H         17.23039         0.22293         0.12223
H         15.96172        20.30542         0.76430
H         19.59989         0.30125        -0.21452
H         18.37315        20.29524         0.48757
H         22.04152         0.25693        -0.43094
H         20.79773        20.30459         0.18014
H         24.53572         0.29672        -0.81479
H         23.24200        20.31052         0.05019
H         26.92394         0.37532        -1.45315
H         25.72379        20.34582        -0.44649
H         29.35857         0.40763        -1.90526
H         28.12685        20.36785        -0.47016
H         31.48927         1.66068        -2.09976
H         32.75234         3.79193        -1.96942
H         32.81734         6.21999        -1.61934
H         32.71300         8.17641        -1.80979
H         32.79803        10.55598        -1.33571
H         32.88756        12.39519        -0.43396
H         32.85712        14.83892        -0.48678
H         32.82982        16.74759        -0.34774
H         30.58396        20.42389        -0.34863
H         32.76032        19.20840        -0.27877
