         324
 CSIRO Nanostructure Databank - Neutral Graphene Oxide Data Set
C          1.47025         2.09009         0.44752
C          1.41129         3.46943         0.21167
C          2.68178         1.41949         0.39299
C          2.57303         4.20993        -0.08615
C          1.29119         6.35366        -0.26242
C          1.23261         7.71484        -0.20397
C          2.54539         5.64142        -0.30489
C          2.43208         8.50844        -0.21586
C          1.25242        10.55843         0.56589
C          1.24556        11.87111         0.91341
C          2.44701         9.82761         0.20674
C          2.46889        12.68349         1.05709
C          1.16221        14.93639         0.76788
C          1.15292        16.25741         0.41146
C          2.41727        14.20877         1.03403
C          2.34069        17.05463         0.38633
C          2.34447        18.40792         0.00511
C          3.87856         2.12404         0.09282
C          3.82813         3.53912        -0.14689
C          5.11043         1.44156         0.02886
C          5.02561         4.25766        -0.45021
C          3.73177         6.34740        -0.54791
C          3.65686         7.81828        -0.72987
C          4.99678         5.68540        -0.65858
C          4.90743         8.60521        -1.01114
C          3.74664        10.54056         0.29550
C          3.76805        12.01140         0.68464
C          4.83278        10.04667        -0.58124
C          4.89412        12.86012         0.22496
C          3.68728        14.94704         0.78627
C          3.60668        16.43146         0.81449
C          4.85396        14.28745         0.48081
C          4.87407        17.24951         0.66926
C          3.51595        19.14804        -0.17021
C          4.81012        18.58190         0.01792
C          6.29895         2.12059        -0.30274
C          6.24801         3.54247        -0.54834
C          7.52539         1.41934        -0.38787
C          7.43475         4.22942        -0.91992
C          6.19993         6.40072        -0.95993
C          6.23082         7.86163        -1.12063
C          7.41342         5.65720        -1.10931
C          7.44549         8.49257        -1.35184
C          5.71820        10.97274        -1.04768
C          5.91825        12.30468        -0.53576
C          7.58567         9.94177        -1.46884
C          7.21168        12.98603        -0.81621
C          6.14969        15.00241         0.38604
C          6.16017        16.51245         0.54698
C          7.24497        14.49022        -0.54398
C          7.32529        17.22002         0.03823
C          5.97944        19.21958        -0.39046
C          7.28840        18.60177        -0.27298
C          8.71229         2.07059        -0.78278
C          8.63378         3.47582        -1.09423
C          9.96474         1.39872        -0.82516
C          9.78854         4.11063        -1.61769
C          8.63656         6.29584        -1.49549
C          8.73585         7.78500        -1.72784
C          9.71910         5.52007        -1.86538
C          9.98951         8.51273        -1.08334
C          8.58962        10.67955        -0.90057
C          8.56391        12.18244        -0.87105
C          9.87007         9.94849        -0.66228
C          9.76990        12.89375        -0.39298
C          8.59511        15.04653        -0.15601
C          8.59146        16.48581         0.17013
C          9.76973        14.30694        -0.19210
C          9.84655        17.27362         0.32966
C          8.49423        19.29355        -0.47097
C          9.82680        18.80909         0.07682
C         11.15679         2.06040        -1.20911
C         10.99155         3.37764        -1.73198
C         12.45840         1.45633        -1.08332
C         12.84314         4.46583        -1.28183
C         11.58668         6.61919        -1.27192
C         11.16548         7.74049        -0.57386
C         12.65265         5.77771        -0.84334
C         12.14748         8.36237         0.36050
C         10.86479        10.61441         0.24228
C         10.86884        12.11339         0.23627
C         12.10799         9.85392         0.65749
C         12.14860        12.78486         0.56297
C         11.11682        15.00327        -0.08833
C         11.10278        16.47798         0.34501
C         12.15253        14.15782         0.62909
C         12.24598        17.06780         0.76426
C         11.01847        19.30863        -0.71703
C         12.28790        19.16174        -0.20906
C         13.68338         2.13677        -0.83929
C         13.75617         3.57385        -0.68023
C         14.87092         1.40604        -0.56532
C         14.84461         4.17940         0.05161
C         13.41186         6.19937         0.37873
C         13.45599         7.69739         0.48125
C         14.74271         5.51198         0.43099
C         14.62509         8.40743         0.74579
C         13.39913        10.56983         0.81920
C         13.39326        12.01928         0.75263
C         14.62030         9.86846         0.80918
C         14.60396        12.70041         0.77051
C         13.46417        14.83000         0.80781
C         13.51098        16.30164         0.85756
C         14.59116        14.07963         0.14948
C         14.72482        17.00474         0.43679
C         13.53243        19.57621        -0.80508
C         14.79911        19.14557        -0.36297
C         16.07841         2.03167        -0.14081
C         16.06879         3.42954         0.22281
C         17.29469         1.32691        -0.03514
C         17.23862         4.06760         0.65733
C         15.88128         6.24958         0.96912
C         15.86626         7.71307         0.85805
C         17.20274         5.48884         1.05850
C         17.11733         8.42604         0.69520
C         15.89880        10.55178         0.84982
C         15.87470        12.01871         1.01507
C         17.13128         9.89511         0.80502
C         17.15453        12.79700         1.01201
C         15.93076        14.83765         0.08414
C         15.94349        16.39103        -0.04666
C         17.13755        14.34473         0.88504
C         17.22005        17.15901        -0.03763
C         16.08191        19.31395        -0.86848
C         17.23922        18.51537        -0.49630
C         18.50457         1.98193         0.31643
C         18.48956         3.38468         0.64787
C         19.73947         1.29974         0.34210
C         19.70610         4.06366         0.94838
C         18.44542         6.23998         1.09232
C         18.45576         7.66218         0.84874
C         19.68386         5.49997         1.30409
C         19.69203         8.44861         1.05217
C         18.41509        10.57915         0.85509
C         18.40476        12.06844         0.52860
C         19.62519         9.90044         1.00284
C         19.62879        12.85941         0.94679
C         18.43088        14.99625         0.41533
C         18.43053        16.39553         0.08700
C         19.64338        14.29357         0.50696
C         19.68844        17.04709        -0.10498
C         18.49608        19.11550        -0.71938
C         19.70919        18.43401        -0.49378
C         20.95405         1.98392         0.57105
C         20.94394         3.40362         0.84169
C         22.18735         1.30008         0.49138
C         22.19447         4.13044         0.89982
C         20.98540         6.30217         1.27291
C         20.89750         7.76990         1.08312
C         22.23095         5.55400         0.98920
C         22.15596         8.50529         0.84562
C         20.89155        10.61491         1.50147
C         20.89461        12.13296         1.26164
C         22.19856         9.95795         1.10119
C         22.18456        12.81509         1.00843
C         20.88157        14.95500         0.35497
C         20.91256        16.34077         0.06223
C         22.17664        14.17508         0.32322
C         22.17255        17.05438        -0.07050
C         20.93837        19.10088        -0.67917
C         22.16784        18.44512        -0.45114
C         23.41589         1.99135         0.56457
C         23.41720         3.42354         0.72897
C         24.63853         1.30465         0.38659
C         24.65957         4.12457         0.70764
C         23.45452         6.24881         0.89366
C         23.43679         7.73105         0.77332
C         24.68143         5.55623         0.79038
C         24.68839         8.48327         1.06597
C         23.39280        10.65347         1.11599
C         23.36429        12.12082         1.12705
C         24.67562         9.96051         0.92324
C         24.66007        12.84386         1.16783
C         23.36135        15.03180         0.72120
C         23.39427        16.42641         0.21262
C         24.64012        14.34562         1.04654
C         24.63329        17.11563         0.09230
C         23.38906        19.13713        -0.57061
C         24.62137        18.49557        -0.32547
C         25.86769         1.99124         0.36949
C         25.87294         3.39868         0.57845
C         27.07023         1.31347        -0.04226
C         27.14227         4.12144         0.62804
C         25.95161         6.26438         0.73459
C         25.98367         7.73139         0.98452
C         27.13925         5.59109         0.60405
C         27.20827         8.47733         0.62382
C         25.88090        10.60914         0.73303
C         25.93062        12.08166         0.93567
C         27.14255         9.90390         0.49693
C         27.08996        12.83247         0.36361
C         25.93231        15.08902         0.84199
C         25.88968        16.47094         0.32535
C         27.20787        14.30434         0.59853
C         27.09932        17.11606        -0.00259
C         25.84359        19.18640        -0.47602
C         27.07676        18.51643        -0.36002
C         28.24913         1.98723        -0.28143
C         28.40162         3.38465         0.16212
C         29.35658         1.38186        -0.97846
C         29.51263         4.19883        -0.36730
C         28.48613         6.29278         0.68154
C         28.38658         7.77529         0.36665
C         29.55965         5.58990        -0.14551
C         29.56056         8.47935        -0.02153
C         28.32450        10.60260         0.16725
C         28.31202        12.06954        -0.04183
C         29.54499         9.90886        -0.06248
C         29.58381        12.81114        -0.18555
C         28.38104        14.98954         0.02641
C         28.35055        16.39281        -0.10125
C         29.57707        14.24094        -0.23077
C         29.55256        17.09168        -0.45409
C         28.28832        19.19679        -0.61420
C         29.52273        18.51332        -0.64783
C         30.44136         2.11752        -1.35468
C         30.53032         3.53872        -1.10158
C         31.62709         4.29034        -1.57122
C         30.68103         6.32027        -0.60093
C         30.74504         7.76812        -0.39969
C         31.70155         5.64958        -1.31491
C         31.90875         8.49259        -0.65645
C         30.76026        10.62452        -0.34067
C         30.77772        12.08949        -0.34861
C         31.92118         9.89218        -0.59687
C         31.98214        12.81336        -0.54355
C         30.79391        14.94250        -0.48585
C         30.78330        16.38919        -0.59461
C         31.98508        14.19294        -0.62253
C         31.95947        17.12413        -0.86722
C         30.72959        19.20787        -0.92293
C         31.92869        18.51399        -1.01709
O         23.79657        14.93053         2.10584
O         12.36401        18.44311         1.01948
O         13.73501        15.46395         2.08557
O         10.84393         6.17045        -2.38201
O          4.22947        17.12104         1.96331
O         28.13308         3.57811         1.59282
O          6.54874        15.59004         1.63582
O         10.47974         9.59685        -1.97612
O         12.06964         3.97960        -2.36565
O         20.06182        12.75661         2.33325
O          9.10986        16.89412         1.54682
O         11.71418         8.87529         1.67465
O          7.90237        12.73961        -2.06539
O         27.28642        12.50131        -1.04455
O         20.38865         5.85725         2.54959
O          6.53444        10.59370        -2.10974
O         10.26579        11.30938         1.36477
O         25.37528         8.05659         2.28758
O          4.15811        10.95867         1.63946
O         16.04847        15.44149        -1.18727
O         14.72708        18.28103         0.80077
O         11.72858        14.96648        -1.37041
O         16.63625        12.38620         2.29811
O         22.78672         8.15986        -0.47231
O         25.52881        12.43798         2.28865
O         26.88396        14.81939         1.92293
O          3.99338         8.26272        -2.11004
O         17.86793         7.96080        -0.50230
O         16.37569         5.75483         2.27684
O          2.47862        13.45178         2.30155
O          6.90641        15.11904        -1.82534
H          7.41010        14.62557        -2.51559
O         12.64026         5.72359         1.54677
H         13.09654         6.04893         2.35252
O         22.41468        13.87029        -1.09640
H         21.58847        13.50300        -1.47718
O          8.85680         7.96345        -3.15618
H          9.36559         8.79592        -3.30437
O         18.40669        12.15732        -0.92642
H         17.74533        11.52657        -1.28317
O         16.90488        14.88608         2.20802
H         16.71223        14.12512         2.81111
O          9.86967        19.43453         1.38709
H          9.40189        18.82844         2.00800
O         28.91426         6.20531         2.07291
H         28.83655         5.25390         2.32765
O         20.83577        10.40665         2.94122
H         20.34844        11.17526         3.32345
O         14.19713        13.87880        -1.22848
H         13.27043        14.25829        -1.38573
H          0.54694         1.54156         0.67949
H          0.43375         3.96497         0.27089
H          2.72971         0.33704         0.57836
H          0.35248         5.78686        -0.21809
H          0.25517         8.20148        -0.08562
H          0.28901        10.03133         0.53227
H          0.29336        12.33947         1.19987
H          0.21206        14.39244         0.85741
H          0.19564        16.74597         0.17517
H          1.38151        18.88340        -0.23462
H          5.13999         0.35893         0.22147
H          3.44481        20.17558        -0.55502
H          7.54466         0.34456        -0.15535
H          5.91697        20.23552        -0.80771
H         10.01241         0.35113        -0.49421
H          8.43611        20.37115        -0.69155
H         12.47503         0.36274        -0.94587
H         10.85234        19.84598        -1.66087
H         14.87271         0.31617        -0.72133
H         13.48518        20.10989        -1.76472
H         17.32331         0.25522        -0.28265
H         16.25915        20.13782        -1.57453
H         19.76681         0.22198         0.12341
H         18.53361        20.15552        -1.07554
H         22.19051         0.21470         0.31286
H         20.93800        20.15949        -0.97751
H         24.62309         0.21853         0.21381
H         23.38217        20.19689        -0.86462
H         26.99074         0.25283        -0.32514
H         25.83138        20.25085        -0.75260
H         29.29739         0.31139        -1.22326
H         28.26290        20.27508        -0.83070
H         31.27027         1.63882        -1.89595
H         32.42218         3.79051        -2.14236
H         32.56419         6.21211        -1.69586
H         32.84344         7.97529        -0.91029
H         32.87016        10.40489        -0.79922
H         32.93660        12.28290        -0.65281
H         32.94121        14.70379        -0.79601
H         32.92308        16.60844        -0.97111
H         30.70277        20.29770        -1.06346
H         32.86138        19.05573        -1.22699
