         324
 CSIRO Nanostructure Databank - Neutral Graphene Oxide Data Set
C          1.40970         3.37752         1.61661
C          0.31514         3.90973         1.00444
C          1.27371         6.16540         0.97079
C          0.21512         5.29626         0.68353
C          1.21099         7.61127         0.73437
C          0.03739         8.31406         0.60418
C          1.08833        10.54914         0.72864
C         -0.01640         9.74674         0.50682
C          1.07830        12.00861         0.77731
C         -0.04731        12.72635         0.33676
C          0.55490        15.13313         0.67636
C         -0.19850        14.12283         0.09232
C          0.68288        16.52269         0.28722
C         -0.20187        17.17392        -0.62029
C          1.08863        19.27097        -0.49361
C         -0.03983        18.51076        -0.93109
C          1.17116        20.69049        -0.65196
C          0.05717        21.45055        -1.16616
C          1.09735        23.63072        -0.46494
C         -0.00629        22.79587        -1.04940
C          1.40037        24.85058        -1.32865
C          0.39341        25.44268        -2.16427
C          1.91426        27.31946        -2.80744
C          0.59378        26.60832        -2.84024
C          1.79492        28.82744        -2.84212
C          3.87306         3.52918         1.39842
C          2.61816         4.19095         1.99463
C          3.51999         6.53597         1.84736
C          2.45046         5.65017         1.58630
C          3.70471         7.77561         1.25175
C          2.50068         8.39128         0.57375
C          3.67121        10.56279         1.12316
C          2.35372         9.82687         1.03379
C          3.58937        11.98927         0.85410
C          2.36652        12.67756         0.93645
C          3.60010        14.83992         0.84305
C          2.45616        14.09054         1.13006
C          3.67974        16.23939         1.07230
C          1.78875        17.29828         0.72931
C          3.42368        19.17821         0.43971
C          2.12175        18.56580         0.21495
C          3.39893        20.66137         0.48375
C          2.28916        21.41147        -0.12807
C          3.58000        23.51837         0.04190
C          2.34547        22.81932        -0.16300
C          3.57258        25.03603        -0.04590
C          2.59144        25.57034        -1.09157
C          3.82677        27.72783        -1.20134
C          2.75951        26.84658        -1.65010
C          3.99057        29.08281        -1.79662
C          2.78762        29.63199        -2.41487
C          6.24850         3.39244         0.65054
C          5.11810         4.09055         1.24817
C          6.26976         6.28926         0.97053
C          5.37738         5.47671         1.62242
C          6.25187         7.75305         1.06249
C          4.98950         8.45278         1.15969
C          6.16498        10.59233         0.73002
C          4.96745         9.85240         0.96429
C          6.09310        11.99392         0.42537
C          4.78134        12.65235         0.34917
C          6.00258        14.93659         0.11530
C          4.74803        14.17897         0.21839
C          5.93110        16.33596         0.19570
C          4.73365        17.03179         0.58761
C          5.92359        19.22237         0.49765
C          4.64471        18.48740         0.53170
C          5.95403        20.62187         0.68418
C          4.72009        21.42428         0.69872
C          6.11601        23.45318         0.01601
C          4.76305        22.84113         0.30606
C          6.13464        24.95976         0.02248
C          4.95971        25.63726        -0.21343
C          6.33457        27.67664        -0.77603
C          5.00204        27.07403        -0.49862
C          6.41136        29.10700        -1.26141
C          5.14777        29.78562        -1.64718
C          8.59525         3.43202        -0.16709
C          7.37770         4.08314         0.27340
C          8.64701         6.30441         0.18306
C          7.34811         5.57208         0.25757
C          8.68882         7.69146         0.70975
C          7.46306         8.48023         0.90564
C          8.59403        10.75899         0.54720
C          7.43916         9.92538         0.79189
C          8.48240        12.07797         0.07803
C          7.23470        12.75852         0.11089
C          8.44543        14.90744        -0.23300
C          7.22115        14.20587        -0.07843
C          8.40761        16.36709        -0.43805
C          7.10815        17.12370        -0.18370
C          8.44502        19.19023         0.42051
C          7.13249        18.54282         0.19550
C          8.49346        20.59774         0.94202
C          7.20187        21.34553         0.97798
C          8.56655        23.53272         0.80971
C          7.24799        22.84029         0.81724
C          8.59098        24.96914         0.61158
C          7.40465        25.65101         0.16985
C          8.70808        27.74543        -0.08639
C          7.49930        27.02846        -0.15215
C          8.76206        29.15830        -0.43057
C          7.63233        29.82907        -0.92429
C         11.05705         3.43921        -0.51142
C          9.81816         4.07952        -0.16994
C         11.15665         6.20529         0.13274
C          9.88694         5.45979         0.43974
C         11.17118         7.58693         0.39352
C          9.95447         8.14389         0.96451
C         11.04076        10.69127         0.03507
C          9.94935        10.27969         0.74120
C         10.99567        12.03937        -0.57233
C          9.66818        12.78549        -0.45144
C         10.94215        14.94241        -0.34150
C          9.69327        14.24544        -0.37232
C         10.94652        16.34410        -0.17805
C          9.71186        17.12588        -0.42941
C         11.04305        19.34089         0.04854
C          9.70496        18.60623        -0.16192
C         10.96533        20.69812         0.72362
C          9.76485        21.36287         0.85993
C         11.00129        23.48312         1.28148
C          9.73047        22.80058         0.99128
C         11.00427        25.01466         1.24305
C          9.79408        25.69409         0.75092
C         11.08175        27.81097         0.56167
C          9.87926        27.08138         0.39564
C         11.15381        29.19838         0.21666
C          9.99126        29.84932        -0.24712
C         13.52328         3.42689        -0.79022
C         12.28502         4.09818        -0.50197
C         13.51514         6.28966        -0.39154
C         12.33001         5.53934        -0.24753
C         13.48392         7.71018        -0.35399
C         12.29673         8.37675         0.04271
C         13.55234        10.58994        -0.10356
C         12.24420         9.85348        -0.33212
C         13.50924        12.08435        -0.23085
C         12.23667        12.80665        -0.48127
C         13.45181        14.92261        -0.31814
C         12.21897        14.20979        -0.38811
C         13.46908        16.21147         0.31813
C         12.09092        16.98245         0.43762
C         13.40991        19.16982         0.97070
C         12.11361        18.46407         0.69434
C         13.43474        20.64828         0.81833
C         12.24819        21.37655         0.86400
C         13.49570        23.51140         1.18838
C         12.28160        22.79628         1.09544
C         13.50183        24.96806         1.24204
C         12.31043        25.67584         1.14582
C         13.59297        27.88087         1.10311
C         12.27364        27.14461         1.10690
C         13.61933        29.26277         0.57429
C         12.40862        29.89099         0.25067
C         15.99490         3.43668        -1.00880
C         14.73488         4.09313        -0.81754
C         15.83287         6.26450        -1.32313
C         14.82742         5.55885        -0.44827
C         15.75596         7.76629        -1.43223
C         14.66626         8.48947        -0.73828
C         15.99276        10.59549        -0.83423
C         14.76451         9.86020        -0.56238
C         16.06713        12.06957        -0.60719
C         14.74984        12.78796        -0.67838
C         16.02423        15.01434        -0.65550
C         14.72218        14.29442        -0.74170
C         15.97894        16.46044        -0.28289
C         14.69319        17.06210         0.22490
C         16.00564        19.08677         1.06540
C         14.70006        18.37579         0.97022
C         15.99715        20.58708         0.97018
C         14.71347        21.36645         0.82341
C         15.97851        23.48509         1.22707
C         14.73815        22.81258         1.10816
C         16.00066        24.92915         1.24777
C         14.78014        25.66565         1.20976
C         16.06013        27.75700         0.98049
C         14.82860        27.07608         1.09297
C         16.08284        29.18716         0.73340
C         14.87374        29.88835         0.46421
C         18.43989         3.45039        -0.92349
C         17.18891         4.13244        -1.21060
C         18.15652         6.27674        -2.06070
C         17.12415         5.56082        -1.51942
C         18.24541         7.74869        -2.08488
C         16.99612         8.53924        -1.76012
C         18.36385        10.62624        -1.56797
C         17.12534         9.93318        -1.26922
C         18.40326        12.05558        -1.62871
C         17.30470        12.86996        -1.01301
C         18.42004        15.24825        -1.05627
C         17.21064        14.40079        -1.00041
C         18.46022        16.54115        -0.41860
C         17.25512        17.15097         0.04122
C         18.49225        19.15051         0.76056
C         17.27105        18.43286         0.60684
C         18.52827        20.50628         1.35254
C         17.19016        21.31013         1.46954
C         18.45280        23.45069         1.47739
C         17.21452        22.77086         1.37047
C         18.47990        24.88926         1.41687
C         17.24607        25.61495         1.28101
C         18.52259        27.73760         1.13730
C         17.27734        27.03628         1.13474
C         18.53481        29.15741         0.94145
C         17.31772        29.84997         0.71324
C         19.67994         4.01605        -0.77144
C         20.66789         6.37913        -0.67206
C         19.97256         5.34898        -1.25680
C         20.57938         7.76100        -1.08819
C         19.52791         8.39062        -1.71936
C         20.67181        10.48224        -2.39226
C         19.52302         9.85384        -1.89419
C         20.62799        11.84028        -2.68662
C         19.50767        12.59686        -2.31640
C         20.74280        15.66180        -1.79164
C         19.54813        14.91313        -1.81495
C         20.82794        16.80113        -1.02083
C         19.67467        17.29559        -0.36070
C         20.90415        19.35459         0.36563
C         19.69378        18.59522         0.26629
C         20.91716        20.66168         0.80144
C         19.73917        21.31370         1.24785
C         20.90419        23.46369         1.62753
C         19.69618        22.72084         1.49750
C         20.91100        24.83917         1.63553
C         19.71287        25.58752         1.47145
C         20.94982        27.76698         1.35681
C         19.74545        27.03366         1.33461
C         20.95575        29.15462         1.17673
C         19.77156        29.84848         0.96271
O          4.57503         6.02623         2.63961
O          6.60974        27.93967        -2.19517
O         15.59515        21.01741        -0.36067
O          2.91481        10.13081         2.33050
O         10.12500         9.29957         1.72284
O         13.65373        11.41523         1.08804
O         17.80469        20.69462         2.61913
O         15.09117        17.25869        -1.17220
O         10.87856        24.28359         2.50582
O         15.41348        18.44558         2.24070
O         12.46848        18.79296         2.05421
O          7.56458        16.78527        -1.55259
O         19.51694        13.90884        -2.77540
O         15.27603         6.88912        -2.51198
O          1.37515        14.72839         1.75312
O         19.32408         5.63256        -2.48090
O         10.15033        12.23778        -1.74681
O          2.62275        16.83602         1.76652
O          4.02799        27.84406         0.28351
O         17.03651        12.45995         0.39796
O         14.58440        13.46226        -1.95770
O          7.86078         6.11482        -1.01799
O         17.47480         8.41565        -3.13655
O          6.96350        22.27813         2.12092
O          4.48595        13.33274        -0.93874
O         12.81131        27.76312         2.34003
O          9.65919        18.11901        -1.53210
O          8.61037        19.47117         1.87293
O          3.79385        21.15835         1.80171
O         12.70075        16.25857         1.54395
O          2.75330         4.12651         3.44461
H          3.51100         4.71115         3.67969
O         11.57704        19.66869        -1.26341
H         11.06771        19.14263        -1.92926
O          6.44311        23.05976        -1.36790
H          5.87843        23.58170        -1.97677
O          2.77117         8.47863        -0.86169
H          2.81301         7.56769        -1.22062
O          3.07160        25.49246         1.25085
H          3.19006        26.47634         1.26027
O          0.61252        24.17267         0.80319
H          1.37516        24.64893         1.22161
O          2.61398        26.95786        -4.06000
H          2.57129        25.98183        -4.14506
O         12.17074         9.80357        -1.79941
H         11.26353         9.54257        -2.06471
O         15.38976         5.61535         0.90432
H         14.78860         5.12381         1.50244
O          9.86570         5.26379         1.89557
H         10.63730         4.70857         2.13490
H          1.42653         2.30802         1.87365
H         -0.53752         3.25893         0.76013
H         -0.70133         5.67300         0.20976
H         -0.92286         7.77703         0.62704
H         -1.00583        10.19765         0.34501
H         -0.89312        12.11790        -0.02096
H         -0.99054        14.40900        -0.61675
H         -1.07341        16.62847        -1.00900
H         -0.80669        18.99349        -1.55095
H         -0.80528        20.91581        -1.58776
H         -0.93521        23.30417        -1.34298
H         -0.58186        24.94650        -2.26105
H         -0.19384        27.00746        -3.49648
H          0.90655        29.25725        -3.32896
H          3.75072         2.48517         1.06532
H          2.72299        30.72262        -2.54886
H          6.21563         2.29517         0.57355
H          5.20742        30.82636        -2.00135
H          8.54437         2.36723        -0.44470
H          7.66421        30.92049        -1.05667
H         11.02954         2.37572        -0.79658
H         10.04634        30.91397        -0.51857
H         13.49449         2.34810        -1.00923
H         12.42879        30.94000        -0.08176
H         16.02921         2.33911        -0.91899
H         14.92821        30.94519         0.16257
H         18.32284         2.41081        -0.57541
H         17.34626        30.93463         0.53088
H         20.46818         3.44079        -0.26075
H         21.29571         6.16690         0.20606
H         21.38928         8.41295        -0.72208
H         21.55991         9.88582        -2.64007
H         21.46460        12.33816        -3.19275
H         21.59453        15.32218        -2.39461
H         21.77309        17.35662        -0.99478
H         21.85421        18.91005         0.04436
H         21.86723        21.21243         0.77648
H         21.85842        22.93059         1.73444
H         21.87240        25.35822         1.74270
H         21.90936        27.25697         1.51368
H         21.91146        29.69674         1.19858
H         19.78357        30.93746         0.81299
