         729
 CSIRO Nanostructure Databank - Neutral Graphene Oxide Data Set
C         23.02003        24.56790         1.42453
C         21.95944        25.28229         1.91215
C         23.09742        27.43650         1.64757
C         22.00038        26.69998         2.05691
C         23.04353        28.86683         1.40388
C         21.97287        29.68677         1.84057
C         22.87105        31.63770         0.69679
C         21.92925        31.05373         1.57769
C         22.95825        33.09441         0.44886
C         21.76235        33.82473         0.46452
C         22.96670        35.92623         0.58843
C         21.76544        35.21829         0.46350
C         22.93093        37.37796         0.90189
C         21.80868        38.18754         0.38807
C         23.14723        40.25513         0.40043
C         21.97198        39.50067         0.06962
C         23.25621        41.61227         0.07379
C         22.37770        42.24361        -0.83605
C         23.43028        44.44803        -0.64393
C         22.45826        43.59721        -1.17742
C         23.60662        45.80089        -1.13571
C         22.55219        46.52783        -1.68167
C         23.88771        48.56294        -1.91605
C         22.68781        47.92532        -1.97335
C         25.45365        23.12134         0.39494
C         25.46674        24.50016         0.60944
C         24.33252        25.18780         1.28102
C         25.46871        27.44408         0.67475
C         24.36220        26.74321         1.35709
C         25.35068        28.78941         0.35998
C         24.08290        29.45785         0.62980
C         25.62343        31.82922        -0.19665
C         23.80915        30.75651         0.15045
C         25.48645        33.16663         0.24923
C         24.20137        33.81695         0.38256
C         25.45324        35.96372         0.77645
C         24.20420        35.23400         0.59066
C         25.48040        37.36618         1.02544
C         24.20785        38.09557         1.24231
C         25.55579        40.27710         1.14576
C         24.19026        39.63618         1.32213
C         25.59662        41.71763         1.03691
C         24.25288        42.44279         0.86450
C         25.68455        44.60167         0.47653
C         24.37865        43.88731         0.34642
C         25.87880        45.89461        -0.22382
C         24.88852        46.47809        -0.95773
C         26.33640        48.58804        -1.25979
C         25.15183        47.76096        -1.73638
C         26.80368        49.64333        -2.01516
C         27.83844        23.11263        -0.12840
C         26.61503        22.44267         0.01287
C         27.86723        24.53769         0.00472
C         26.66007        25.23413         0.34063
C         27.87915        27.34139         0.16817
C         26.67279        26.66665         0.38787
C         27.84166        28.80876         0.33020
C         26.60357        29.51635        -0.19898
C         27.93468        31.69644         0.36107
C         26.71794        31.01778         0.06816
C         27.92958        33.12061         0.47824
C         26.70192        33.84884         0.51279
C         27.93398        35.96912         0.79517
C         26.69356        35.26622         0.72178
C         27.94386        37.38018         0.94178
C         26.70497        38.07626         1.08149
C         28.02367        40.19925         1.55124
C         26.71655        39.52687         1.20089
C         28.05715        41.68600         1.30541
C         26.81735        42.38834         1.12367
C         28.18930        44.59369         1.06180
C         26.92662        43.82831         0.77618
C         28.06005        46.08620         1.07530
C         26.96253        46.70700         0.35946
C         28.41170        48.83115         0.19094
C         27.11773        48.19451        -0.08480
C         28.73871        50.03330        -0.53288
C         27.93261        50.40375        -1.61939
C         30.32928        20.27425        -0.54914
C         29.11435        20.98894        -0.46266
C         30.30200        23.11764        -0.45800
C         29.07981        22.39033        -0.37814
C         30.33785        24.51813        -0.32439
C         29.10171        25.24820        -0.12710
C         30.35290        27.41164        -0.05590
C         29.11551        26.66249         0.00161
C         30.39145        28.77417         0.18239
C         29.14864        29.52337         0.45891
C         30.39614        31.66413         0.40583
C         29.17668        30.99277         0.37201
C         30.40398        33.10949         0.44980
C         29.17033        33.82713         0.54425
C         30.39949        35.95804         0.56169
C         29.16968        35.24596         0.65201
C         30.41891        37.38321         0.63194
C         29.20495        38.09947         0.88221
C         30.47304        40.21074         0.90659
C         29.25369        39.49082         1.05466
C         30.51014        41.63898         1.10212
C         29.28762        42.35054         1.36855
C         30.66864        44.45641         1.59638
C         29.30862        43.81207         1.79199
C         30.81213        45.81066         1.91785
C         28.97687        46.95567         1.64372
C         30.64061        48.82064         1.27919
C         29.29931        48.25013         1.11576
C         30.67033        50.32906         1.12010
C         29.84123        50.82718        -0.05612
C         31.09571        52.92684         0.02738
C         30.03352        52.15122        -0.45603
C         32.83823        18.79299        -0.96388
C         32.80990        20.18197        -0.71943
C         31.55244        20.90969        -0.64708
C         32.78271        23.05815        -0.17825
C         31.58120        22.40736        -0.83498
C         32.81545        24.54579        -0.22084
C         31.59089        25.22354        -0.33088
C         32.87971        27.38329        -0.07307
C         31.60310        26.71292        -0.52621
C         32.88884        28.78915         0.03958
C         31.62811        29.52928         0.15178
C         32.93217        31.61757         0.62509
C         31.62490        30.90543         0.35205
C         32.88118        33.10566         0.33277
C         31.61819        33.82004         0.35688
C         32.82882        35.97028         0.14187
C         31.61892        35.24672         0.35729
C         32.85545        37.36611         0.18289
C         31.64558        38.08888         0.47112
C         32.90178        40.21585         0.33732
C         31.66927        39.50769         0.57241
C         32.92203        41.64241         0.49495
C         31.74372        42.33026         0.89594
C         33.00550        44.49205         0.89813
C         31.79461        43.76504         1.09872
C         33.01482        45.90346         1.04415
C         31.88079        46.61592         1.48852
C         33.10746        48.77599         1.45694
C         31.81225        48.08961         1.44070
C         33.19082        50.23266         1.48328
C         32.04321        50.96437         1.12726
C         33.38827        53.04455         1.03107
C         32.15417        52.33372         0.76225
C         33.49373        54.44575         0.87738
C         35.26983        18.77369        -0.89084
C         34.04275        18.10347        -1.02265
C         35.26755        20.17262        -0.67787
C         34.04924        20.86169        -0.57236
C         35.34432        23.01935        -0.09626
C         34.06402        22.28449        -0.15702
C         35.27963        24.45421         0.24505
C         34.04479        25.22153        -0.01897
C         35.35185        27.36084         0.07356
C         34.09323        26.65287         0.00851
C         35.35154        28.79374         0.01097
C         34.11683        29.48193         0.02560
C         35.38113        31.63866         0.08959
C         34.06563        30.96947        -0.17831
C         35.33912        33.07892         0.29325
C         34.04670        33.78443         0.13881
C         35.33354        35.95688        -0.25506
C         34.02584        35.20702        -0.34634
C         35.29851        37.38502        -0.33580
C         34.08752        38.09261        -0.08568
C         35.26868        40.27248        -0.55244
C         34.07398        39.50773        -0.03104
C         35.35957        41.67701        -0.01576
C         34.17334        42.35755         0.33650
C         35.44593        44.44913         0.43562
C         34.21712        43.77547         0.54867
C         35.49758        45.91632         0.52084
C         34.23480        46.67631         0.79537
C         35.58286        48.68297         1.56914
C         34.27416        48.06031         1.30856
C         35.67291        50.14648         1.68787
C         34.44928        50.88844         1.59759
C         35.74041        52.99418         1.79927
C         34.52828        52.31719         1.48033
C         35.76619        54.39152         1.74184
C         34.65200        55.10526         1.24934
C         37.82926        16.01973        -1.49214
C         36.62828        16.63498        -1.34018
C         37.85402        18.73675        -0.66028
C         36.54184        18.00074        -0.81151
C         37.84702        20.22678        -0.76660
C         36.54025        20.95044        -0.70679
C         37.82244        23.07669        -0.21714
C         36.54716        22.37807        -0.29205
C         37.84712        24.47352        -0.05790
C         36.61289        25.21615         0.24544
C         37.82292        27.37665        -0.04618
C         36.59291        26.67761         0.06168
C         37.82714        28.81446        -0.07246
C         36.59699        29.51154        -0.03937
C         37.83753        31.69324        -0.08739
C         36.58648        30.95916         0.00811
C         37.84905        33.09264        -0.20569
C         36.62544        33.85382         0.06029
C         37.72827        35.90179        -0.96296
C         36.52889        35.26416        -0.33157
C         37.73843        37.38702        -0.76284
C         36.55772        38.08999        -0.52971
C         37.80431        40.22073        -0.57047
C         36.57410        39.52235        -0.50728
C         37.83128        41.64554        -0.34444
C         36.61185        42.34519        -0.05450
C         37.90425        44.45221         0.13274
C         36.65882        43.75195         0.19361
C         37.95584        45.86602         0.43115
C         36.79507        46.55637         0.73762
C         38.08773        48.69150         1.06198
C         36.85890        47.92072         1.27341
C         38.12560        50.08580         1.38632
C         36.91594        50.77382         1.79417
C         38.28053        52.91450         2.17597
C         36.92552        52.19131         2.35190
C         38.23575        54.41183         2.13132
C         36.90010        55.11116         2.44899
C         37.97364        57.27348         1.70580
C         36.94988        56.60438         2.25105
C         40.38849        14.48859        -1.48409
C         40.34672        15.95353        -1.52701
C         39.08946        16.69232        -1.28162
C         40.35634        18.78127        -0.75028
C         39.12319        18.04341        -0.96131
C         40.31927        20.21164        -0.47092
C         39.10798        20.94061        -0.46478
C         40.30860        23.06299        -0.20578
C         39.07212        22.35041        -0.30598
C         40.30466        24.51407        -0.15414
C         39.07069        25.21738        -0.12010
C         40.29738        27.37213        -0.07366
C         39.06564        26.65316        -0.07253
C         40.30699        28.80713        -0.09537
C         39.07360        29.53634        -0.10077
C         40.28768        31.70850        -0.19741
C         39.07103        30.96679        -0.14822
C         40.30757        33.10761        -0.35840
C         39.06278        33.82937        -0.43049
C         40.25853        35.96309        -0.82464
C         39.03840        35.21855        -0.65547
C         40.24421        37.33436        -1.07006
C         38.95462        38.09613        -1.27787
C         40.26171        40.21686        -0.83835
C         39.02450        39.53352        -0.83085
C         40.29265        41.63334        -0.60828
C         39.06893        42.33668        -0.36939
C         40.34956        44.45786        -0.17037
C         39.10298        43.75496        -0.13786
C         40.38162        45.87720         0.06434
C         39.20765        46.57513         0.39071
C         40.44171        48.72288         0.39570
C         39.23158        48.00164         0.61441
C         40.46372        50.14163         0.59708
C         39.32329        50.79502         1.14181
C         40.54173        53.00399         0.93760
C         39.55288        52.16235         1.73209
C         40.49088        54.40355         0.89758
C         39.22839        55.10380         1.24790
C         40.33219        57.32723         0.65226
C         39.10418        56.58212         1.03316
C         40.32508        58.72480         0.61789
C         42.78195        14.52297        -0.99544
C         41.57151        13.83335        -1.34546
C         42.82110        15.87768        -0.81475
C         41.65990        16.69665        -1.18258
C         42.80834        18.77396        -0.40754
C         41.57599        18.10032        -0.73252
C         42.80468        20.19576        -0.27925
C         41.54957        20.92260        -0.30418
C         42.82226        23.08365        -0.29061
C         41.51875        22.33324        -0.19902
C         42.74888        24.49931         0.23450
C         41.51444        25.24802        -0.02831
C         42.79658        27.38053        -0.01128
C         41.53700        26.66102         0.00148
C         42.78706        28.81307        -0.12379
C         41.55153        29.49895        -0.09893
C         42.84627        31.71135        -0.24023
C         41.54790        30.96916        -0.01303
C         42.79056        33.14292        -0.60685
C         41.54346        33.84321        -0.53878
C         42.75367        35.93836        -0.97657
C         41.52309        35.23532        -0.77740
C         42.76945        37.34837        -1.17983
C         41.48441        38.06719        -1.51534
C         42.69903        40.22771        -1.14334
C         41.49581        39.52981        -1.10086
C         42.75150        41.63961        -0.90055
C         41.53267        42.33646        -0.64398
C         42.80356        44.45409        -0.43091
C         41.55234        43.75575        -0.42976
C         42.81542        45.89290        -0.29104
C         41.62051        46.59261        -0.05832
C         42.82040        48.75229        -0.21185
C         41.62621        48.02525         0.04673
C         42.79676        50.18692        -0.21065
C         41.63453        50.87771         0.24406
C         42.70693        53.06621        -0.21505
C         41.63755        52.32676         0.33253
C         42.71133        54.47714        -0.14734
C         41.56888        55.16124         0.35778
C         42.68821        57.34580        -0.02906
C         41.52022        56.61286         0.32474
C         42.64134        58.75617        -0.05620
C         41.47426        59.43669         0.25972
C         45.28844        15.88802        -0.29982
C         43.96003        16.54943        -0.06880
C         45.25682        18.73396        -0.15215
C         44.01598        18.04927        -0.27070
C         45.26450        20.16424        -0.03894
C         44.03643        20.85996        -0.05528
C         45.32662        23.05758         0.31626
C         44.00535        22.30087         0.24151
C         45.31497        24.51131         0.09055
C         44.07224        25.26225         0.30022
C         45.26180        27.36837        -0.28087
C         44.03193        26.69965         0.01066
C         45.25644        28.79069        -0.45575
C         44.03589        29.51869        -0.32087
C         45.24351        31.59896        -0.88015
C         44.06130        30.92658        -0.51732
C         45.18967        33.03559        -1.35756
C         43.96940        33.80571        -0.92768
C         45.23286        35.92639        -1.14789
C         43.98830        35.22594        -1.03070
C         45.23405        37.34241        -1.25108
C         43.97863        38.03072        -1.30076
C         45.26096        40.24661        -1.41122
C         43.94762        39.50013        -1.49177
C         45.24956        41.66991        -1.03344
C         44.00516        42.34748        -0.85544
C         45.29454        44.46558        -0.28354
C         44.00558        43.74576        -0.58461
C         45.25258        45.93307        -0.63363
C         44.03857        46.62221        -0.47955
C         45.21081        48.78119        -0.80446
C         44.02132        48.05588        -0.51372
C         45.14641        50.21291        -0.93418
C         43.93999        50.90059        -0.66125
C         45.00987        53.12091        -1.31141
C         43.71548        52.34211        -1.07940
C         45.07797        54.55366        -0.93786
C         43.89928        55.22820        -0.52087
C         45.13425        57.32587        -0.55015
C         43.91393        56.63714        -0.36462
C         46.45074        16.58305        -0.31076
C         47.74380        18.72484        -0.18734
C         46.49470        18.01719        -0.18470
C         47.75398        20.15626        -0.14097
C         46.52312        20.87872        -0.00213
C         47.74822        23.01337        -0.20505
C         46.54777        22.29041         0.05365
C         47.70046        24.42625        -0.39995
C         46.48947        25.17705        -0.27665
C         47.67295        27.33952        -0.69881
C         46.47611        26.63160        -0.42082
C         47.67641        28.73206        -0.85799
C         46.47327        29.48134        -0.75356
C         47.68759        31.64115        -1.23257
C         46.46559        30.90077        -0.97437
C         47.69502        33.03114        -1.20932
C         46.47260        33.79257        -1.11130
C         47.74203        35.94882        -0.80556
C         46.47096        35.17499        -1.07866
C         47.75609        37.30036        -1.51908
C         46.47905        38.08345        -1.30105
C         47.75667        40.20547        -1.15942
C         46.51265        39.46610        -1.27907
C         47.72275        41.60478        -1.05449
C         46.49964        42.34323        -0.93563
C         47.72864        44.51437        -0.86619
C         46.53769        43.76167        -0.74551
C         47.68119        45.93743        -0.92816
C         46.45369        46.64590        -0.87017
C         47.63183        48.80973        -1.29631
C         46.43929        48.08506        -0.99860
C         47.54543        50.22488        -1.47845
C         46.33989        50.90789        -1.31982
C         47.57748        53.12603        -1.44032
C         46.30153        52.37814        -1.51579
C         47.56061        54.53177        -1.29419
C         46.30447        55.24577        -1.04463
C         46.30146        56.64629        -0.84065
C         50.18543        18.74459        -0.33737
C         48.98463        18.04596        -0.27211
C         50.22044        20.14354        -0.32910
C         48.99543        20.86728        -0.23961
C         50.21622        23.01648        -0.45726
C         48.97632        22.29696        -0.31316
C         50.22030        24.43071        -0.58530
C         48.93458        25.11067        -0.80044
C         50.22044        27.32875        -0.78329
C         48.93646        26.60527        -0.94649
C         50.21615        28.72426        -0.94388
C         48.93682        29.39770        -1.26688
C         50.25798        31.57983        -1.37522
C         48.94664        30.89148        -1.47348
C         50.26690        33.03596        -1.62815
C         48.94133        33.78311        -1.49633
C         50.22249        35.88597        -1.14401
C         49.01626        35.20339        -1.16134
C         50.20348        37.33274        -1.00026
C         49.02752        38.04890        -1.14813
C         50.24270        40.18450        -1.05204
C         49.00622        39.48675        -1.08494
C         50.24698        41.62890        -1.15460
C         48.99394        42.34890        -0.73973
C         50.14805        44.48702        -1.37249
C         48.98707        43.81770        -1.08652
C         50.22040        45.95057        -1.20921
C         48.92806        46.70958        -0.98081
C         50.11204        48.79083        -1.64435
C         48.90772        48.13896        -1.34293
C         50.07214        50.23146        -1.98126
C         48.75758        50.96975        -1.89249
C         50.00487        53.13524        -1.76798
C         48.78349        52.43581        -1.67592
C         49.98398        54.53271        -1.56756
C         48.79820        55.21059        -1.33637
C         52.51138        20.36694         0.67600
C         51.57555        20.81469        -0.46283
C         52.60712        23.08894        -0.61591
C         51.44595        22.32480        -0.51976
C         52.64126        24.47678        -0.42775
C         51.41770        25.17568        -0.52397
C         52.65779        27.35327        -0.47047
C         51.43383        26.63232        -0.57734
C         52.64537        28.77034        -0.59043
C         51.42423        29.45127        -0.87825
C         52.73611        31.55258        -1.25356
C         51.41759        30.88147        -1.11947
C         52.75272        33.06172        -1.44447
C         51.49608        33.81079        -1.39727
C         52.77735        35.91018        -1.08567
C         51.50189        35.18066        -1.21710
C         52.75842        37.29477        -0.95198
C         51.47715        38.02251        -0.59001
C         52.68539        40.16505        -1.09130
C         51.47400        39.47763        -0.98671
C         52.66705        41.58257        -1.46797
C         51.39899        42.31280        -1.43835
C         52.63843        44.53427        -1.39226
C         51.40097        43.77573        -1.83564
C         52.65107        45.96878        -1.50827
C         51.41735        46.70219        -1.63059
C         52.63024        48.83499        -2.08352
C         51.37465        48.09659        -1.74696
C         52.56331        50.33255        -2.19161
C         51.33291        51.01110        -2.00478
C         52.40277        53.16698        -2.41002
C         51.25732        52.42882        -2.05719
C         53.72474        20.86632         1.02470
C         55.13542        23.00822         0.99051
C         54.31316        22.06255         0.44340
C         55.05977        24.45835         0.56670
C         53.86535        25.18534         0.01082
C         55.07743        27.35829         0.03899
C         53.93033        26.66157        -0.24516
C         55.02399        28.84878         0.28673
C         53.86997        29.52111        -0.40789
C         55.17917        31.60469        -0.69573
C         53.93608        30.86922        -0.70150
C         55.14957        32.88906        -1.20487
C         54.01386        33.78842        -1.22206
C         55.37614        35.96556        -1.04751
C         54.04461        35.17326        -1.09501
C         55.19459        37.41355        -0.66411
C         53.98942        38.06204        -0.81806
C         55.07033        40.30698        -0.53380
C         53.93528        39.52461        -0.82760
C         55.02152        41.72420        -0.46129
C         53.92744        42.41346        -1.13798
C         54.88986        44.59090        -0.43413
C         53.79302        43.87035        -1.00154
C         54.93284        46.02829        -0.61444
C         53.84641        46.67480        -1.30680
C         55.39691        48.60325        -1.64874
C         53.95600        48.07112        -1.77500
C         55.62846        50.04686        -2.00267
C         53.65314        51.11828        -2.62365
C         53.57778        52.51118        -2.74140
C         57.10058        23.57900         2.29369
C         55.98232        22.83336         2.16887
C         57.55158        24.44477         1.13367
C         56.37230        25.18027         0.50919
C         57.49360        27.44995         0.86134
C         56.36426        26.66582         0.31142
C         57.44960        28.87603         0.72162
C         56.36799        29.53953         0.17538
C         57.56488        31.77195         0.41874
C         56.54036        30.93381        -0.41198
C         57.61377        33.20976         0.42560
C         56.83829        34.02341        -0.43558
C         57.27901        36.03983         0.77220
C         56.47920        35.33379        -0.19084
C         57.29480        37.47894         0.74790
C         56.39852        38.14661        -0.20223
C         57.22784        40.38225         0.78468
C         56.33124        39.66370        -0.12865
C         57.07402        41.79850         0.94579
C         55.97792        42.47607         0.27409
C         56.78529        44.68828         1.15773
C         55.89003        43.90119         0.28196
C         56.87368        46.16580         0.91284
C         55.99644        46.76345        -0.10346
C         57.39452        48.88708        -0.09444
C         56.01098        48.26118        -0.27744
C         57.64183        50.09635        -0.65548
C         56.69765        50.74165        -1.54780
C         59.88457        24.73737         1.85472
C         58.71381        25.35987         1.47186
C         59.84861        27.55561         1.65843
C         58.65055        26.79512         1.34239
C         59.82877        28.96485         1.60933
C         58.49945        29.65380         1.47447
C         59.63664        31.85316         1.76714
C         58.56202        31.12044         1.14346
C         59.53011        33.24838         1.95288
C         58.42522        33.93036         1.35726
C         59.04709        36.05255         2.57861
C         58.25367        35.33499         1.51036
C         59.16080        37.54787         2.35617
C         58.24059        38.22227         1.48956
C         59.21448        40.39923         2.22777
C         58.23928        39.67263         1.46126
C         59.19444        41.85250         2.20321
C         58.06791        42.51955         1.63912
C         59.14581        44.75130         2.23013
C         57.94684        43.98094         1.82965
C         59.18501        46.18906         2.08876
C         58.08743        46.91000         1.37034
C         59.39007        49.00667         1.49923
C         58.52393        48.14544         0.60269
C         61.06074        25.48262         2.12194
C         61.04190        26.84998         2.02131
C         60.93707        29.77058         1.98437
C         60.81619        31.13116         2.15597
C         60.54252        34.04958         2.61290
C         60.36631        35.36914         2.84170
C         60.06897        38.28881         3.10062
C         60.12052        39.69025         3.01948
C         60.24922        42.62197         2.73091
C         60.24708        44.02394         2.68316
C         60.19211        46.97890         2.60490
C         60.19694        48.40742         2.40884
O         36.11343        33.59099         1.42778
O         36.31536        47.99170         2.65697
O         52.89384        32.13537        -2.59018
O         34.74382        46.58936        -0.59431
O         48.87486        29.96648        -2.62035
O         53.62297        41.95413        -2.50466
O         38.60232        55.62944         0.01874
O         56.37580        33.42401        -1.62015
O         49.81525        46.38049         0.15434
O         28.33579        29.15305         1.66065
O         54.86358        50.55978        -3.05313
O         53.81469        22.41136        -0.83498
O         45.50488        52.84943        -2.67555
O         38.71558        53.74082         3.32514
O         33.23070        22.48521         1.07243
O         49.27277        50.53023        -3.19607
O         37.23038        20.73033        -2.00872
O         37.17549        18.19321         0.51751
O         24.57598        31.24074        -0.92086
O         53.42280        48.20362        -3.13550
O         56.70101        44.33360         2.56746
O         35.95835        24.79616         1.49492
O         57.05546        38.97908        -1.21693
O         24.67308        44.75457         1.51965
O         44.58743        39.98661        -2.71260
O         48.86296        25.75790        -2.14580
O         49.50993        33.44755        -2.81156
O         41.19722        16.53595        -2.56442
O         42.34332        31.47875         1.12587
O         27.93131        44.07510        -0.28399
O         26.36439        47.83071         1.10559
O         54.08759        25.06940         1.50262
O         29.79915        46.43632         2.65986
O         24.80283        25.90233         2.46673
O         56.72353        25.72070        -0.79703
O         56.85854        47.02131         2.14544
O         44.56576        22.63602         1.52427
O         23.35063        37.55114         2.31582
O         43.33231        24.82554         1.50838
O         41.44589        38.07546        -2.98336
H         40.50668        38.26932        -3.23941
O         40.27907        51.83361         2.96544
H         40.21796        52.63222         3.54137
O         51.47257        38.00836         0.89147
H         50.61284        38.38221         1.18268
O         23.82392        39.98722         2.67954
H         23.26850        39.24577         3.02062
O         28.97748        43.83024         3.20283
H         29.13253        44.74808         3.52611
O         36.60779        54.95408         3.85616
H         36.67027        53.99014         4.07304
O         38.76122        38.14391        -2.75835
H         38.41213        37.24639        -3.00525
O         34.99449        40.44414        -2.00383
H         34.19060        41.00171        -2.08201
O         45.39079        44.43709         1.20366
H         46.26365        44.81669         1.44408
O         37.53112        35.69868        -2.44653
H         36.57865        35.86191        -2.63145
O         29.98066        50.84634         2.31592
H         29.95584        51.82388         2.23731
O         52.16371        20.34702        -1.70232
H         53.01072        20.83667        -1.81473
O         51.39372        43.79189        -3.29576
H         52.19211        43.29348        -3.58459
O         43.08209        23.25615        -1.72652
H         42.87406        22.41298        -2.18283
O         31.78224        22.64270        -2.27602
H         31.00887        22.26573        -2.74680
O         26.60970        29.32861        -1.63738
H         25.83670        29.82343        -1.99041
O         45.05490        32.93317        -2.82046
H         45.91446        32.61959        -3.17633
O         28.09397        40.07815         3.02846
H         27.32855        40.56878         3.39904
O         54.70193        28.96069         1.73101
H         53.96899        28.33609         1.92088
O         58.26885        35.91794         3.82766
H         58.16988        34.95814         4.00398
O         33.73491        31.20362        -1.58625
H         34.37139        30.69898        -2.13500
O         36.68346        52.08103         3.78653
H         37.43076        51.58141         4.17911
O         49.04926        42.34977         0.74009
H         49.74360        42.98750         1.01259
O         47.81297        37.01511        -2.94023
H         47.68576        37.85329        -3.43146
O         55.84645        36.00146        -2.42529
H         56.07841        35.07754        -2.67511
O         25.52912        47.31048        -3.08766
H         24.75040        46.85214        -3.46945
O         23.66154        42.53516         2.18289
H         24.02219        43.34942         2.60390
O         58.01892        23.52050         0.10993
H         58.06974        24.03605        -0.72594
O         57.94565        29.62000         2.85476
H         58.62086        30.02593         3.44030
O         59.38352        47.62252        -0.46015
H         59.62668        48.36817        -1.04814
O         55.13615        48.82064         0.73980
H         55.46511        48.47641         1.60426
O         43.04550        52.23518        -2.37613
H         43.76365        52.21711        -3.05361
O         33.24455        31.42559         2.02564
H         32.53538        31.83718         2.56150
O         33.84691        35.09802        -1.82057
H         33.00177        34.62203        -1.97466
O         56.14810        47.85199        -2.63882
H         55.66809        47.94476        -3.49112
O         47.76226        36.23331         0.62352
H         47.64336        35.38985         1.10757
O         57.18167        30.72397        -1.70171
H         57.21793        31.59949        -2.14928
O         31.60100        26.89750        -2.00309
H         32.28557        26.30017        -2.37365
O         43.63648        16.35714         1.35867
H         44.34743        16.78735         1.87986
H         22.87836        23.52083         1.12252
H         20.99828        24.77498         2.07822
H         21.06994        27.21355         2.33661
H         21.19045        29.24862         2.47510
H         21.14894        31.67275         2.04204
H         20.80277        33.29004         0.48796
H         20.80525        35.75069         0.46891
H         20.86253        37.69033         0.13364
H         21.12912        40.02434        -0.40418
H         21.62924        41.63605        -1.36338
H         21.77003        43.98081        -1.94413
H         21.55345        46.07602        -1.75485
H         23.96387        49.63972        -2.12468
H         21.77552        48.49362        -2.20735
H         24.53860        22.54079         0.57499
H         26.26513        49.93471        -2.92817
H         26.55873        21.35362        -0.11333
H         28.18943        51.29410        -2.20941
H         30.27972        19.17799        -0.48594
H         28.18710        20.40701        -0.38603
H         31.17575        53.97010        -0.30526
H         29.34073        52.61048        -1.17593
H         31.90184        18.23547        -1.09838
H         32.63520        55.03069         0.52086
H         34.02245        17.01577        -1.17242
H         34.70342        56.20114         1.18420
H         37.84664        14.99334        -1.88369
H         35.71315        16.11486        -1.65475
H         37.94610        58.37244         1.69695
H         36.13361        57.16944         2.72566
H         39.45383        13.91522        -1.55403
H         39.40901        59.28268         0.85097
H         43.64799        13.90102        -0.73118
H         41.59125        12.73438        -1.35911
H         43.52672        59.33548        -0.34749
H         41.44813        60.53409         0.22142
H         45.32514        14.79236        -0.37178
H         45.18198        58.41512        -0.42470
H         47.38981        16.02623        -0.43099
H         47.23073        57.22262        -0.93134
H         51.12807        18.18714        -0.42871
H         49.01788        16.94959        -0.30061
H         50.91613        55.11174        -1.59236
H         48.84257        56.29867        -1.20108
H         52.15543        19.50046         1.25833
H         52.36255        54.25991        -2.49351
H         54.24253        20.41959         1.88883
H         54.45513        53.06779        -3.09386
H         57.76108        23.46514         3.16555
H         55.71010        22.08505         2.92971
H         58.61171        50.59468        -0.50292
H         56.91301        51.74919        -1.92598
H         59.90865        23.64142         1.93078
H         59.42637        50.09612         1.35403
H         61.98199        24.95900         2.41193
H         61.95940        27.41149         2.23997
H         61.90500        29.30366         2.21174
H         61.68227        31.68866         2.53606
H         61.49236        33.57865         2.90313
H         61.16804        35.93297         3.33921
H         60.75641        37.78687         3.79463
H         60.85588        40.22394         3.63641
H         61.14127        42.12135         3.13045
H         61.15280        44.55378         3.00970
H         60.98914        46.54099         3.22174
H         60.89316        49.00992         3.01082
