         344
 CSIRO Nanostructure Databank - Neutral Graphene Oxide Data Set
C          1.59727         1.81958         0.62312
C          1.57015         3.21986         0.73605
C          2.72039         1.17458         0.13788
C          2.67338         4.00198         0.36534
C          1.52766         6.14813         0.88355
C          1.50211         7.55731         1.00522
C          2.65200         5.45996         0.42387
C          2.55836         8.34318         0.59136
C          1.37535        10.49707         1.11349
C          1.36460        11.86202         1.30413
C          2.55580         9.78930         0.70016
C          2.51409        12.66106         1.08022
C          1.37268        14.78800         1.66811
C          1.37621        16.16403         1.79099
C          2.54621        14.05184         1.33200
C          2.56484        16.91973         1.61174
C          2.56350        18.34380         1.68935
C          3.86364         1.92657        -0.24526
C          3.84400         3.35147        -0.12924
C          5.04341         1.28275        -0.68849
C          4.99268         4.10862        -0.51483
C          3.82212         6.20200         0.03434
C          3.69245         7.69628        -0.16922
C          4.98900         5.55303        -0.37008
C          4.98797         8.45018        -0.03476
C          3.72333        10.50770         0.42627
C          3.71432        12.01838         0.40904
C          4.96432         9.81892         0.14246
C          5.02489        12.58276         0.96335
C          3.81044        14.78006         1.22568
C          3.79666        16.23534         1.36176
C          4.99063        14.09757         0.99272
C          4.96735        16.98832         1.21423
C          3.71517        19.07511         1.50657
C          4.96466        18.42466         1.24665
C          6.16769         2.02105        -1.06068
C          6.11737         3.44933        -1.04267
C          7.42914         1.33812        -1.27071
C          7.26853         4.23315        -1.52303
C          6.20776         6.29784        -0.65360
C          6.30194         7.71176        -0.10866
C          7.29302         5.68916        -1.24314
C          7.36462         8.55265        -0.77896
C          6.19290        10.60839        -0.04192
C          6.21036        11.98223         0.23582
C          7.31974         9.95418        -0.63109
C          7.39504        12.77485        -0.01100
C          6.27142        14.80962         0.93875
C          6.26097        16.30755         1.06827
C          7.43232        14.16143         0.28700
C          7.33092        17.08829         0.34726
C          6.16000        19.15807         1.09523
C          7.41257        18.53475         0.78651
C          8.59614         2.01420        -1.41854
C          8.60627         3.47272        -1.65620
C          9.93736         1.33618        -1.38041
C          9.86009         4.21813        -1.36145
C          8.50145         6.46114        -1.64714
C          8.42751         7.93317        -1.46949
C          9.88031         5.67417        -1.67717
C          9.48545         8.77969        -1.93507
C          8.40694        10.81933        -1.22378
C          8.54770        12.16024        -0.56853
C          9.68739        10.06282        -1.47152
C          9.75475        12.87087        -0.67243
C          8.60024        14.91237         0.03860
C          8.64814        16.36626         0.25604
C          9.78267        14.23679        -0.33313
C          9.79170        17.08997         0.09899
C          8.60717        19.21217         0.74372
C          9.92730        18.48604         0.65442
C         10.84834         2.11077        -0.40705
C         10.91753         3.58289        -0.77514
C         12.19443         1.45113        -0.30784
C         12.09840         4.33624        -0.20583
C         11.17967         6.35559        -1.43278
C         11.39827         7.69005        -1.87626
C         12.22697         5.72646        -0.76299
C         12.39540         8.51546        -1.38008
C         10.99824        10.76777        -1.61100
C         10.99509        12.20829        -1.17394
C         12.40588        10.02914        -1.63980
C         12.27636        12.90671        -0.86844
C         11.07061        14.99235        -0.15539
C         10.97978        16.44670        -0.57556
C         12.28310        14.29975        -0.69477
C         12.29977        17.16880        -0.40535
C         11.09002        19.25975         0.06604
C         12.28254        18.62723        -0.25943
C         13.39367         2.13984        -0.21939
C         13.41514         3.58673        -0.25873
C         14.63513         1.43824        -0.08853
C         14.62129         4.27530        -0.17292
C         13.45302         6.42928        -0.57362
C         13.49493         7.84334        -0.76193
C         14.64838         5.72377        -0.22634
C         14.68025         8.53888        -0.40541
C         13.28983        10.69159        -0.53988
C         13.47083        12.17918        -0.77428
C         14.60985         9.99302        -0.25193
C         14.69909        12.87493        -0.62822
C         13.49567        15.01733        -0.65759
C         13.47082        16.47952        -0.55960
C         14.70293        14.29307        -0.65504
C         14.74934        17.21284        -0.88427
C         13.53098        19.33901        -0.35125
C         14.75965        18.68160        -0.52596
C         15.85809         2.10928         0.04086
C         15.87613         3.56924         0.00177
C         17.07584         1.39661         0.14469
C         17.07472         4.26218         0.12213
C         15.87004         6.41919        -0.11052
C         15.88265         7.85069        -0.16102
C         17.11137         5.69970         0.03196
C         17.13626         8.56588        -0.09865
C         15.91960        10.74172        -0.16131
C         15.95332        12.17946        -0.45256
C         17.17109         9.97098        -0.21555
C         17.18575        12.83975        -0.49425
C         15.96497        15.00056        -0.37486
C         15.97624        16.49672        -0.37473
C         17.23659        14.27890        -0.52454
C         17.26455        17.18599        -0.54146
C         16.01182        19.32184        -0.47559
C         17.26390        18.61133        -0.56007
C         18.32685         2.05556         0.29886
C         18.31236         3.53703         0.60425
C         19.51921         1.36744         0.31706
C         19.61318         4.22063         0.26644
C         18.32794         6.40017         0.00802
C         18.36283         7.82409        -0.06685
C         19.60603         5.64127        -0.23068
C         19.60466         8.52409        -0.12161
C         18.40098        10.67262        -0.32001
C         18.42135        12.09857        -0.43132
C         19.62914         9.94136        -0.25398
C         19.65380        12.79557        -0.49713
C         18.43725        14.97308        -0.58918
C         18.46108        16.43693        -0.59589
C         19.68134        14.23054        -0.61082
C         19.68738        17.12692        -0.66275
C         18.51593        19.27248        -0.55047
C         19.72524        18.54523        -0.58423
C         20.86508         2.03420         0.31147
C         20.79602         3.54838         0.39574
C         21.86341         1.47857         1.33351
C         22.05888         4.26585         0.49853
C         20.85558         6.40374         0.11111
C         20.84861         7.80563         0.01773
C         22.06279         5.69514         0.35063
C         22.08367         8.52997         0.06285
C         20.86662        10.64904        -0.30869
C         20.88278        12.06570        -0.45533
C         22.09971         9.93673        -0.15631
C         22.12628        12.76519        -0.54630
C         20.90746        14.90024        -0.68210
C         20.97415        16.38952        -0.92771
C         22.13472        14.18154        -0.63903
C         22.12451        17.00626        -0.14034
C         21.01416        19.20861        -0.50303
C         22.19213        18.50754        -0.32421
C         23.21369         2.15925         1.17473
C         23.23968         3.59482         0.88639
C         24.35943         1.46813         1.38932
C         24.47299         4.30612         0.99355
C         23.28702         6.41272         0.46012
C         23.30192         7.82425         0.27813
C         24.50990         5.72165         0.73768
C         24.53997         8.53197         0.27121
C         23.34235        10.62519        -0.24453
C         23.36690        12.04647        -0.52190
C         24.53843         9.90921        -0.00572
C         24.58022        12.73492        -0.72526
C         23.39209        14.88841        -0.64371
C         23.41937        16.29163        -0.45060
C         24.61508        14.16337        -0.77526
C         24.63689        16.96225        -0.29560
C         23.46155        19.13561        -0.14603
C         24.65180        18.40603        -0.05966
C         25.68902         2.14049         1.59165
C         25.69878         3.60097         1.21400
C         26.88233         1.41555         1.03683
C         26.92494         4.26028         1.16122
C         25.72802         6.43393         0.77088
C         25.78809         7.82351         0.48447
C         26.95350         5.75748         1.30896
C         27.04026         8.48977         0.43719
C         25.83603        10.55314        -0.27541
C         25.84047        11.96983        -0.73286
C         27.07254        10.00174         0.39351
C         27.14506        12.69507        -0.84898
C         25.85467        14.88960        -0.77985
C         25.85948        16.24423        -0.44136
C         27.13576        14.17649        -1.05955
C         27.14318        16.85559         0.06532
C         25.90361        19.04825         0.18090
C         27.11388        18.36165         0.21894
C         28.06892         2.07675         0.85462
C         28.15156         3.52809         1.03622
C         29.27760         1.36549         0.49459
C         29.38374         4.18386         0.92778
C         28.24667         6.41975         0.92006
C         28.26274         7.76874         0.63369
C         29.50734         5.66213         1.25572
C         29.53657         8.57447         0.79997
C         28.35399        10.65549        -0.09274
C         28.39655        11.98855        -0.45123
C         29.60577         9.81556        -0.10789
C         29.62242        12.76989        -0.37585
C         28.48064        14.92008        -1.15890
C         28.38851        16.37392        -0.65989
C         29.65096        14.14927        -0.56313
C         29.65128        17.07548        -0.29693
C         28.33430        19.01187         0.53696
C         29.57729        18.37053         0.42901
C         30.46499         2.01751         0.37844
C         30.56002         3.44436         0.58224
C         31.77097         4.11234         0.36202
C         30.75687         6.31615         0.70487
C         30.80922         7.75443         0.63190
C         31.84636         5.52002         0.37598
C         31.98492         8.45499         0.48332
C         30.86845        10.60696         0.18693
C         30.82709        12.11732         0.29050
C         31.99950         9.89547         0.43922
C         32.10502        12.78931        -0.14104
C         30.88697        14.89014        -0.40860
C         30.91557        16.29974        -0.27489
C         32.11614        14.11866        -0.37732
C         32.08058        17.01333         0.09215
C         30.79478        18.98032         0.79168
C         32.01284        18.32315         0.57902
O         15.85180        15.79497         0.89338
O          9.15266         6.02879        -2.87245
O          7.82438         3.85255        -2.82192
O         15.11744        10.42416         1.06333
O         27.10848        13.26685        -2.20833
O         10.47070         8.22895        -2.75981
O         10.93077        11.83964        -2.62716
O         28.97457        17.27432        -1.62450
O          6.66789        15.50252         2.20852
O         25.91593        10.83945        -1.70354
O          7.93872        11.16346        -2.59529
H          8.70101        11.59940        -3.04164
O         10.22221         2.03551         0.90822
H         10.67904         2.70245         1.47179
O          3.67068        12.42983        -0.99149
H          2.93229        11.95340        -1.42527
O         12.99842        10.26528        -2.91943
H         12.48368        10.98967        -3.34920
O         27.30386        16.30599         1.42208
H         26.55289        16.62684         1.96496
O         11.78232         4.46941         1.23797
H         12.53116         4.94666         1.65660
O         14.86964        17.14101        -2.34574
H         14.11597        17.63477        -2.73210
O         18.24013         3.62666         2.07817
H         17.46238         3.09978         2.36149
O         11.29460        15.04649         1.29427
H         11.40156        14.12882         1.62273
O         30.67782        12.38481         1.73205
H         30.70895        13.35810         1.85037
O         12.50414        10.56796         0.68083
H         13.13842        10.68054         1.42661
O         26.98632        10.41826         1.80005
H         27.80755        10.07839         2.23903
O         29.70491         9.29627        -1.46791
H         29.59783        10.04580        -2.09125
O          6.84648        17.12839        -1.03861
H          7.52370        17.58097        -1.58402
O         10.52223         1.31975        -2.68928
H         10.30886         2.16324        -3.13969
O         19.65149         5.48808        -1.71344
H         20.55891         5.19492        -1.94610
O         26.88390         5.97809         2.78294
H         27.78246         5.76062         3.13492
O         29.47992         9.05158         2.17653
H         29.50921         8.26255         2.76122
O         29.64494         5.74623         2.73901
H         30.36713         5.13199         2.99494
O         25.87907         2.12359         3.06289
H         25.14237         2.64111         3.45329
O         10.33176        18.27559         2.06446
H         10.96090        17.52048         2.07840
O         10.69977        16.47985        -2.00663
H         10.69647        17.41780        -2.29032
O         28.82686        14.98699        -2.55996
H         28.15083        15.52420        -3.02190
O         21.45975         1.74288        -0.99238
H         20.81606         2.00918        -1.68194
O          5.11794        12.15919         2.35733
H          5.80668        12.70521         2.79277
O         21.37732         1.71197         2.66123
H         21.05994         2.63797         2.71569
O         21.29117        16.57979        -2.33841
H         20.55579        16.20780        -2.86841
O         21.84332        16.76671         1.26865
H         22.51391        17.24866         1.79579
O          3.31535         7.83941        -1.59974
H          2.47941         7.34116        -1.72534
O          6.74317         7.52741         1.28838
H          6.70509         8.40449         1.72680
H          0.71397         1.23847         0.92288
H          0.65576         3.69182         1.11945
H          2.74278         0.07913         0.04931
H          0.64021         5.59479         1.21663
H          0.61354         8.01178         1.46542
H          0.45374         9.93467         1.31403
H          0.44299        12.32562         1.68377
H          0.41794        14.25725         1.78595
H          0.43785        16.69313         2.01297
H          1.61269        18.85862         1.89192
H          5.08556         0.18372        -0.70262
H          3.68734        20.17314         1.56179
H          7.44410         0.24451        -1.14631
H          6.13710        20.24680         1.25865
H          9.83618         0.27734        -1.03730
H          8.62943        20.28555         0.99281
H         12.20694         0.35210        -0.24533
H         11.10277        20.34927         0.23020
H         14.62007         0.33832        -0.07639
H         13.52599        20.42238        -0.15388
H         17.05996         0.29987         0.05413
H         16.04560        20.41291        -0.33004
H         19.50895         0.27564         0.16868
H         18.54786        20.37083        -0.49337
H         21.97688         0.37393         1.20654
H         21.03655        20.30918        -0.53924
H         24.30717         0.39237         1.62166
H         23.50722        20.23486        -0.09586
H         26.83484         0.32306         0.91144
H         25.90802        20.13878         0.33334
H         29.21854         0.27812         0.34093
H         28.30305        20.06460         0.85863
H         31.38079         1.46886         0.11395
H         32.65949         3.53143         0.07686
H         32.78886         5.98850         0.05869
H         32.95215         7.93185         0.46899
H         32.96009        10.39818         0.62394
H         33.04702        12.22355        -0.15411
H         33.06578        14.62535        -0.60226
H         33.06074        16.51708         0.06341
H         30.78546        19.97940         1.25074
H         32.94641        18.82830         0.86519
