         244
 CSIRO Nanostructure Databank - Neutral Graphene Oxide Data Set
C          1.61238         2.17387         1.97232
C          1.38821         3.45167         1.54792
C          2.79513         1.46722         1.60666
C          2.36016         4.12259         0.66825
C          1.01384         6.41894         0.56100
C          0.95336         7.74575         0.24483
C          2.18691         5.56735         0.24948
C          2.10188         8.43259        -0.30680
C          1.13235        10.67191        -0.62967
C          1.23414        12.02992        -0.83987
C          2.26456         9.83884        -0.41046
C          2.46302        12.75094        -0.63321
C          1.30776        15.01452        -1.13439
C          1.32169        16.37350        -1.09606
C          2.58450        14.21772        -1.05855
C          2.51399        17.11884        -0.77494
C          2.56605        18.52953        -0.82774
C          3.82864         2.08432         0.90369
C          3.71377         3.49320         0.52624
C          5.04531         1.39168         0.64095
C          4.78955         4.16583         0.01210
C          3.39021         6.27584        -0.23841
C          3.19376         7.56370        -0.65582
C          4.74644         5.65367        -0.12982
C          5.12084         8.67046        -0.81612
C          3.56231        10.55054         0.01260
C          3.56649        12.05304        -0.20054
C          4.94386         9.99204        -0.36633
C          4.76201        12.77178         0.32429
C          3.66261        14.99692        -0.33520
C          3.65416        16.37627        -0.30578
C          4.80277        14.25922         0.24990
C          4.80282        17.14580         0.23900
C          3.71754        19.24483        -0.51430
C          4.89714        18.59423        -0.04553
C          6.16635         2.03168         0.11900
C          6.06175         3.45255        -0.39567
C          7.39175         1.34735        -0.04368
C          7.33967         4.25425        -0.19293
C          6.06596         6.38949        -0.27267
C          6.21230         7.86557        -0.49604
C          7.34196         5.60478        -0.29502
C          7.37998         8.52802        -0.03681
C          6.10027        10.62668         0.10370
C          6.09870        12.05728         0.57813
C          7.32546         9.92975         0.16787
C          7.28104        12.77915        -0.12506
C          6.12291        14.94393         0.29243
C          6.11114        16.40018         0.49633
C          7.30166        14.26777         0.13735
C          7.36661        17.13680         0.35831
C          6.10043        19.25883         0.17106
C          7.34817        18.56251         0.34848
C          8.61495         2.03983        -0.15639
C          8.59286         3.50492         0.21355
C          9.83519         1.38473        -0.30902
C          9.87891         4.23159        -0.09520
C          8.63054         6.38837        -0.50146
C          8.62427         7.80503         0.02082
C          9.88643         5.64014        -0.11701
C          9.82005         8.46856         0.21036
C          8.53974        10.66732         0.55348
C          8.58838        12.11782         0.26438
C          9.84700         9.89713         0.57179
C          9.76334        12.80970         0.25382
C          8.57164        14.96798         0.09327
C          8.57512        16.42609         0.14498
C          9.76874        14.25472         0.05914
C          9.78336        17.13139         0.02872
C          8.58354        19.24295         0.38306
C          9.80846        18.53965         0.26093
C         11.08943         2.07194        -0.24725
C         11.09236         3.51781        -0.13225
C         12.30665         1.39509        -0.33384
C         12.33161         4.22316        -0.12153
C         11.09960         6.34539         0.00365
C         11.09571         7.79516         0.10555
C         12.33900         5.64055         0.02169
C         12.28202         8.50951         0.19432
C         11.09395        10.64177         0.36688
C         11.10060        12.14381         0.54789
C         12.27922         9.95823         0.20314
C         12.19950        12.74787        -0.34216
C         11.03679        14.94018        -0.12889
C         11.00447        16.41830        -0.49031
C         12.21357        14.25315        -0.23770
C         12.30808        17.10085        -0.14410
C         11.06049        19.20959         0.35198
C         12.29952        18.53766         0.19282
C         13.55744         2.08469        -0.29269
C         13.56782         3.52108        -0.17881
C         14.77866         1.40212        -0.37321
C         14.79290         4.23556        -0.12815
C         13.57685         6.34151         0.12464
C         13.55138         7.78330         0.55334
C         14.79578         5.66500         0.02688
C         14.82057         8.53760         0.25760
C         13.54948        10.68095         0.06905
C         13.54071        12.06978        -0.14300
C         14.76991         9.93283         0.13831
C         14.74737        12.82203        -0.39360
C         13.44272        14.96959        -0.74528
C         13.46978        16.40704        -0.26426
C         14.73951        14.19400        -0.54952
C         14.76176        17.06842         0.15797
C         13.50322        19.22926         0.26185
C         14.76975        18.56398        -0.19973
C         16.01228         2.10089        -0.35580
C         16.02560         3.52699        -0.21776
C         17.24310         1.40829        -0.47959
C         17.26382         4.24049        -0.22750
C         16.05776         6.39248         0.12118
C         16.04217         7.80820         0.25215
C         17.28517         5.67579        -0.01343
C         17.32996         8.51668         0.62293
C         16.02904        10.71768         0.09364
C         15.98773        11.98841        -0.73283
C         17.32334        10.01456         0.31213
C         17.31296        12.75198        -0.72203
C         15.99364        14.95799        -0.75196
C         16.00492        16.42606        -0.41419
C         17.31877        14.25170        -0.74665
C         17.28466        17.08258        -0.06080
C         16.03467        19.19082         0.31697
C         17.23005        18.48729         0.32169
C         18.44950         2.10702        -0.55695
C         18.45495         3.52832        -0.46162
C         19.70671         1.39296        -0.68774
C         19.71660         4.27303        -0.78875
C         18.55343         6.35057         0.04650
C         18.58909         7.79658         0.18761
C         19.75989         5.66591        -0.21447
C         19.77723         8.47052         0.07541
C         18.56407        10.69101        -0.12562
C         18.57549        12.04459        -0.39463
C         19.78924         9.90517        -0.26818
C         19.81388        12.80132        -0.37630
C         18.54233        14.96803        -0.31286
C         18.48734        16.36582        -0.06431
C         19.77591        14.22902        -0.19399
C         19.79947        17.11622         0.04274
C         18.44685        19.14312         0.70834
C         19.68057        18.50549         0.64444
C         20.90613         2.04425        -0.64909
C         20.97513         3.47489        -0.55594
C         22.17046         4.14977        -0.40097
C         21.03003         6.30836        -0.11657
C         21.07358         7.75110         0.36332
C         22.19926         5.56011        -0.24160
C         22.31470         8.52972        -0.00284
C         21.09413        10.63766        -0.46993
C         21.05347        12.10792        -0.27882
C         22.33586         9.84429        -0.26504
C         22.21854        12.81225         0.04987
C         20.96998        14.89464         0.22193
C         20.86799        16.30611         0.77431
C         22.16225        14.17839         0.33541
C         22.15727        17.09438         0.82987
C         20.87292        19.15170         1.01231
C         22.11107        18.45022         0.99562
O          5.44592         6.21788         1.08226
O         17.50467        13.47526        -1.99362
O         15.90560        15.98872        -1.79618
O          5.22164        16.81018         1.59600
O          1.80359         4.44188        -0.67405
O         20.36475        10.13913        -1.63614
O          4.10718         8.09476        -1.56752
O          9.15329        10.26738         1.82688
O          4.40651        13.57953         1.52264
O         16.67771        10.81543         1.40050
O          8.52419         3.48548         1.68722
H          8.42336         4.41178         1.99480
O          8.71211         6.53885        -1.96602
H          8.68611         5.64024        -2.35916
O         14.78765        18.65015        -1.65838
H         14.72338        19.59533        -1.90661
O         20.27431        17.28455        -1.32048
H         19.55507        17.69332        -1.84582
O         13.24356        15.01300        -2.20559
H         12.96178        14.10619        -2.47385
O          6.35106        12.04646         1.99363
H          5.84586        12.80354         2.38034
O         11.44349        12.41933         1.92723
H         10.79297        11.93994         2.48612
O          3.06327        14.10723        -2.45908
H          3.02353        15.00495        -2.85304
O          3.51877        10.34575         1.46922
H          4.21391        10.90791         1.87968
O          5.96564         3.32528        -1.86348
H          5.14935         2.81825        -2.06217
O         15.76944        11.54077        -2.09577
H         16.14161        12.24254        -2.68145
O         10.87473        16.45053        -1.94945
H         11.71177        16.05398        -2.30941
O         13.51709         7.73122         2.03561
H         12.70938         7.23670         2.29239
O         17.38917         8.39533         2.08216
H         16.82452         9.12135         2.43955
O         19.66677         4.47069        -2.26367
H         20.47780         4.96547        -2.51021
O         11.84690        12.48474        -1.74649
H         12.05183        11.54369        -1.93762
O          7.08179        12.58518        -1.55269
H          7.81372        13.03374        -2.02651
O         20.40354        16.15023         2.14936
H         21.08861        15.65793         2.64767
O         21.13094         7.66696         1.83403
H         20.28163         7.28201         2.14158
O         14.86740        16.93418         1.59731
H         14.12097        17.42550         2.00142
H          0.86255         1.66245         2.59264
H          0.44687         3.96416         1.79044
H          2.91140         0.42039         1.92159
H          0.13181         5.93328         1.00402
H          0.05213         8.32228         0.50154
H          0.15896        10.18693        -0.79867
H          0.33451        12.57647        -1.15265
H          0.36867        14.50061        -1.38316
H          0.39274        16.93622        -1.27579
H          1.67387        19.07447        -1.17010
H          5.13336         0.34514         0.97196
H          3.72979        20.33732        -0.63888
H          7.40271         0.24766         0.02722
H          6.13648        20.35087         0.03757
H          9.84166         0.29639        -0.47669
H          8.59876        20.34033         0.45531
H         12.31094         0.29917        -0.43435
H         11.06977        20.29222         0.54895
H         14.78525         0.30621        -0.47006
H         13.49527        20.31734         0.43499
H         17.24014         0.31072        -0.55429
H         16.03710        20.25636         0.59550
H         19.67379         0.29580        -0.75636
H         18.39103        20.18113         1.07187
H         21.84738         1.47403        -0.66498
H         23.11496         3.58804        -0.34980
H         23.17763         6.04620        -0.12956
H         23.27596         8.00392         0.09865
H         23.30363        10.33906        -0.43988
H         23.17981        12.28800         0.13209
H         23.08479        14.67979         0.65739
H         23.12892        16.58174         0.86970
H         20.84971        20.20898         1.31503
H         23.04227        19.01539         1.15102
