         280
 CSIRO Nanostructure Databank - Neutral Graphene Oxide Data Set
C         31.77027        31.83353        -3.18073
C         31.75363        33.08839        -3.22986
C         31.33710        36.11143        -2.60382
C         31.21502        37.30631        -2.28268
C         30.89168        40.51800        -1.72480
C         30.70398        41.69939        -1.36815
C         33.83840        28.83602        -2.13529
C         32.97898        29.58471        -2.67776
C         33.67559        31.72396        -1.70454
C         32.71058        30.94375        -2.66573
C         34.08005        33.15765        -2.24169
C         32.84266        33.96563        -2.80002
C         33.63500        36.12274        -1.57323
C         32.63093        35.40984        -2.50750
C         33.07990        37.41960        -0.84032
C         32.04847        38.25827        -1.63388
C         33.23385        40.44800        -1.18016
C         31.96753        39.61045        -1.50780
C         32.96170        41.85497        -0.62148
C         31.73963        42.50435        -0.75125
C         32.68230        44.43515         0.37624
C         31.74516        43.81811        -0.14980
C         35.80961        27.22764        -0.09592
C         35.91370        28.62042        -0.69114
C         34.62804        29.40996        -0.90591
C         35.83204        31.63227        -0.39813
C         34.96861        30.88178        -1.39853
C         35.72568        33.05954        -0.29468
C         34.84492        33.86309        -1.12408
C         35.11758        35.97415         0.52385
C         34.22360        35.11930        -0.52319
C         35.38452        37.45211         0.07651
C         34.29871        38.19407        -0.42318
C         35.53325        40.38957        -0.12619
C         34.18470        39.67800        -0.21732
C         35.42874        41.85539         0.12620
C         34.18381        42.68844        -0.21915
C         35.24976        44.65534         0.85597
C         33.98273        43.82243         0.85070
C         35.41969        46.04376         0.97885
C         38.05099        27.08962         0.93216
C         36.81813        26.60093         0.25680
C         37.94882        28.67434         0.78274
C         36.87176        29.34978         0.26871
C         37.68073        31.50971         1.35992
C         36.51103        30.78740         0.68247
C         37.61767        33.01483         1.35506
C         36.52865        33.73335         0.67852
C         37.76941        35.84965         0.58494
C         36.43509        35.22254         1.01690
C         37.83301        37.34827         0.49432
C         36.60546        38.11916         0.31118
C         37.61558        40.16423         1.51634
C         36.82414        39.61899         0.22162
C         37.60323        41.72760         1.57955
C         36.45064        42.50536         1.00305
C         37.73228        44.63169         1.24024
C         36.50189        43.98633         0.94484
C         37.78354        46.04299         1.47593
C         36.52758        46.60678         1.23011
C         40.97080        24.72715         0.16186
C         39.89504        25.34441         0.03155
C         40.43278        27.52462         0.53444
C         39.38737        26.63295         0.38825
C         40.34567        28.75399         1.27843
C         39.11112        29.38299         1.28850
C         40.25671        31.58758         1.57054
C         39.01308        30.82132         1.59039
C         40.24484        33.04804         1.94159
C         38.93062        33.75694         1.59334
C         40.19847        35.89674         1.45743
C         39.02574        35.12253         0.96827
C         39.98145        37.18937         1.79970
C         39.02273        38.07526         1.11212
C         40.17534        40.25309         1.53429
C         39.00867        39.54326         1.41899
C         40.07862        41.65580         2.07325
C         38.89470        42.48766         1.67860
C         40.19128        44.62611         0.89463
C         38.96160        43.83145         1.36225
C         40.63898        45.74837         1.89043
C         38.89220        46.69450         2.24077
C         40.36386        48.77390         1.58167
C         39.40806        47.93683         1.86695
C         43.29960        24.46487         1.45683
C         42.23796        25.10473         0.71428
C         43.34086        27.24548         1.62003
C         42.42982        26.49039         0.73882
C         42.87598        28.58066         2.27971
C         41.54805        29.37053         1.91014
C         42.76971        31.70514         1.89985
C         41.51095        30.90951         1.94534
C         42.76125        33.04521         1.60744
C         41.46062        33.77958         1.34860
C         42.75559        35.95515         1.28896
C         41.52004        35.23178         1.85617
C         42.67574        37.40874         0.84126
C         41.73923        38.35919         1.57112
C         42.53119        40.22859         0.20429
C         41.48510        39.62724         1.16285
C         42.71234        41.74110         0.42907
C         41.46622        42.54734         0.20773
C         42.83431        44.50543         0.79687
C         41.45944        43.84472         0.62921
C         42.73398        46.02781         0.60754
C         41.67532        46.67149         1.18887
C         42.89972        48.65581         1.08607
C         41.60653        48.13520         1.32700
C         44.13910        25.04927         2.15935
C         44.86135        27.32599         1.31471
C         44.41337        26.45256         2.48424
C         45.23965        28.76583         1.53254
C         44.12040        29.49525         2.18688
C         45.28411        31.70014         1.49595
C         44.06638        31.00150         2.04458
C         45.14329        33.09192         1.01768
C         43.97464        33.78008         1.23901
C         45.13365        35.89204         0.56139
C         43.92144        35.24014         1.00571
C         45.31327        37.38244         0.75377
C         44.00539        38.14590         0.85928
C         45.13814        40.26927        -0.03969
C         43.91888        39.59080         0.49571
C         45.12275        41.65279        -0.29350
C         43.79613        42.34343        -0.50013
C         45.20328        44.50530        -0.12656
C         43.81059        43.93070        -0.27820
C         45.26428        45.98064         0.36082
C         43.97681        46.76421         0.00550
C         43.94548        48.16977         0.59407
C         46.74269        27.30517        -0.18689
C         45.64376        26.84481         0.17728
C         47.04706        28.76384        -0.31962
C         46.23359        29.40046         0.84360
C         47.53222        31.49582         0.19521
C         46.44116        30.85405         0.96915
C         47.54439        32.96715         0.15768
C         46.18344        33.65398         0.07099
C         47.40439        35.78729        -0.42494
C         46.26884        35.16484         0.11251
C         47.39615        37.23584        -0.72530
C         46.21137        38.03569        -0.28760
C         47.48211        40.15625        -0.75965
C         46.30193        39.51955        -0.30222
C         47.50465        41.57374        -0.82836
C         46.32091        42.31853        -0.63009
C         47.53337        44.45821        -0.99353
C         46.31975        43.79725        -0.61365
C         47.44035        45.85117        -0.77024
C         46.50604        46.54181        -0.31084
C         49.65971        28.71783        -0.61440
C         48.46049        29.28098        -0.30389
C         49.82270        31.39594        -0.76309
C         48.61100        30.74664        -0.25411
C         49.80167        32.76432        -1.04410
C         48.70981        33.62557        -0.54339
C         49.74245        35.77182        -1.38997
C         48.44892        34.98957        -1.18406
C         49.82403        37.14045        -1.22683
C         48.64522        37.95273        -1.03394
C         49.83162        40.05555        -1.59829
C         48.66552        39.36681        -1.11689
C         49.95337        41.45700        -1.53749
C         48.82520        42.30383        -0.94803
C         50.01075        44.26380        -1.70123
C         48.60814        43.67807        -1.68033
C         50.82370        29.19296        -0.90575
C         52.06122        31.36952        -1.59803
C         51.00329        30.54737        -1.10115
C         52.06017        32.57170        -1.90765
C         50.88621        33.44983        -1.82646
C         52.06307        35.80340        -2.06631
C         50.87670        34.94952        -1.94771
C         52.17479        36.98034        -1.73049
C         51.15308        37.96474        -1.28143
C         52.09110        40.01273        -2.48586
C         50.90791        39.12803        -2.24476
C         52.17519        41.24525        -2.37333
C         51.15698        42.14623        -1.94598
C         50.99811        43.55409        -1.99252
O         41.20931        30.09008         3.13791
O         37.98559        31.04933         2.70200
O         46.22623        37.50703        -1.63821
O         41.66946        27.30493        -0.12164
O         40.85881        42.04928         2.93591
O         50.47686        34.11219        -3.05288
O         38.97299        37.77504        -0.31625
O         36.47872        42.11601         2.43430
O         34.30109        36.13028         1.65626
O         44.06791        39.16845         1.90318
O         44.33130        30.34334         3.33523
O         48.58736        33.64630         0.91900
O         43.47333        42.06383        -1.83537
O         35.90824        41.33766        -1.16100
O         37.98699        33.59837         2.65559
O         40.97714        45.41194         3.07336
O         46.45221        31.42761         2.32440
O         40.94175        37.82504         2.60256
O         33.24655        34.99333        -3.75282
O         38.56901        35.16799        -0.42735
O         37.76886        39.88970        -0.82727
H         37.40287        39.57908        -1.68146
O         43.91630        46.89062        -1.39010
H         43.09652        47.35774        -1.64809
O         49.21787        42.66925         0.39784
H         49.40976        41.85148         0.90264
O         34.72919        36.58808        -2.38534
H         34.62152        36.21983        -3.29275
O         40.43398        41.95378        -0.44494
H         39.76769        42.62421        -0.70149
O         32.33551        37.15131         0.35370
H         32.97863        36.79634         1.05620
O         50.40397        38.59255        -3.45259
H         50.29489        39.31121        -4.10857
O         43.37818        44.36974         2.11332
H         42.66828        44.63667         2.75371
O         51.42417        38.49871         0.00004
H         51.70901        37.77778         0.59824
O         33.89351        40.57818        -2.45618
H         33.29082        41.05845        -3.06248
O         45.41635        46.03918         1.75792
H         46.15185        45.45843         2.04072
O         33.80287        43.23888         2.12399
H         33.90798        43.91929         2.82008
O         39.74297        45.25799        -0.33930
H         40.53534        45.48778        -0.87011
O         38.75451        46.45936         3.60901
H         39.64397        46.13710         3.93418
O         44.80479        26.79441         3.75482
H         44.12836        27.39150         4.16237
O         48.20048        43.42194        -3.01385
H         47.85398        44.24561        -3.41579
O         38.02290        26.81355         2.32616
H         37.11658        26.97311         2.66140
O         33.61237        39.78949         1.11551
H         32.93165        39.08489         1.22436
O         41.68068        35.22729         3.28257
H         41.59927        36.15593         3.59617
O         34.53292        43.43059        -1.40945
H         34.90063        42.78230        -2.05342
O         43.23530        41.89504         1.75041
H         42.50180        41.94629         2.41377
O         36.45306        35.39062         2.43848
H         35.52334        35.67678         2.68071
O         43.33583        44.47442        -1.52660
H         43.31405        43.68253        -2.15200
O         40.37522        33.03317         3.37309
H         39.50004        32.77241         3.74339
O         32.93079        31.89796        -0.50121
H         32.98947        32.84066        -0.16415
O         46.02364        37.52532         2.01229
H         45.59422        38.26847         2.50232
O         36.60320        28.47545        -1.91875
H         35.94129        28.34148        -2.63328
O         42.22129        37.28628        -0.53360
H         42.07839        38.18985        -0.93019
O         35.70940        30.67724        -2.60721
H         35.89393        31.55059        -3.02781
O         36.99020        39.65324         2.68343
H         36.40148        40.35865         3.04627
O         47.85081        34.69302        -2.48329
H         47.74048        35.53523        -2.97537
O         33.81364        29.37738         0.20678
H         33.20450        30.15428         0.20732
O         41.24792        33.80373        -0.07702
H         41.78647        34.52213        -0.47540
O         42.67480        28.22397         3.66278
H         42.37602        29.03921         4.13315
O         34.93592        32.98852        -3.38802
H         34.93234        33.83353        -3.89156
O         42.16542        39.93856        -1.14608
H         42.59946        40.65359        -1.71805
O         35.51335        30.62723         1.73448
H         36.00348        30.48127         2.57638
O         45.67177        33.30558        -1.25686
H         46.26974        33.72850        -1.92485
O         33.12442        34.55716         0.22956
H         33.25603        34.93524         1.16130
O         46.47362        29.26150        -1.53764
H         45.63876        28.78014        -1.71480
