         480
 CSIRO Nanostructure Databank - Neutral Graphene Oxide Data Set
C         38.28372        49.94431        -2.90950
C         37.33059        50.56806        -3.69862
C         38.61008        52.61534        -3.63658
C         37.49713        51.91241        -4.06926
C         40.37072        48.58603        -1.36467
C         40.45178        49.97532        -1.65918
C         39.43351        50.63723        -2.45726
C         40.74577        52.74615        -2.33975
C         39.59612        52.00357        -2.82467
C         40.94024        54.11649        -2.66037
C         42.58006        48.61129        -0.33528
C         41.40426        47.92366        -0.74164
C         42.62122        50.02904        -0.47430
C         41.56930        50.70379        -1.18283
C         42.75135        52.86746        -0.91827
C         41.69113        52.10819        -1.49688
C         42.88825        54.25708        -1.20261
C         41.98076        54.84492        -2.12035
C         45.00551        45.81446         0.33101
C         43.81609        46.48189         0.16409
C         44.95541        48.63942         0.31560
C         43.76170        47.90582         0.08583
C         44.90398        50.06848         0.45342
C         43.72674        50.76538         0.07172
C         44.37649        53.05578         0.85025
C         43.64068        52.22184         0.01610
C         44.58491        54.43989         0.56159
C         43.92214        55.03424        -0.54753
C         45.35759        57.00868        -0.28500
C         44.31288        56.34794        -0.92065
C         47.58379        44.39629         0.23521
C         47.51311        45.83958         0.29586
C         46.25021        46.51726         0.36345
C         47.43404        48.67476         0.33196
C         46.20859        47.94045         0.37765
C         47.40115        50.10334         0.52563
C         46.15531        50.73059         0.81062
C         47.40444        52.72845         1.56083
C         46.21201        51.98198         1.44798
C         47.38356        54.11843         1.97260
C         45.57001        55.18978         1.25216
C         47.20688        57.06721         1.47217
C         46.04634        56.42288         0.81099
C         47.12112        58.45066         1.69659
C         49.91204        44.52159        -0.54258
C         48.70861        43.76113        -0.17320
C         49.98185        45.93160        -0.12526
C         48.71707        46.58275         0.18882
C         49.91452        48.76052         0.04489
C         48.66123        48.00005         0.22374
C         49.88200        50.25608         0.17552
C         48.59796        50.87018         0.55802
C         49.82452        53.07643         0.87211
C         48.59594        52.18982         1.01810
C         49.79737        54.15029         1.96908
C         48.48969        54.92511         1.85290
C         49.56634        57.11811         2.21886
C         48.40881        56.37102         1.84157
C         49.33803        58.43931         2.62885
C         48.13199        59.11176         2.38718
C         52.56413        41.71515        -0.79665
C         51.36202        42.33282        -0.68380
C         52.48968        44.58170        -0.64333
C         51.25386        43.79544        -0.78801
C         52.43627        45.96188        -0.43454
C         51.19747        46.62226        -0.13804
C         52.42244        48.88163         0.18482
C         51.18599        48.04082         0.43307
C         52.39128        50.24320         0.30424
C         51.14253        50.98171         0.47349
C         52.35022        53.05881         1.11114
C         51.12761        52.30772         0.84413
C         52.29535        54.39980         1.54850
C         51.03433        55.02395         1.99898
C         52.15950        57.32893         1.70542
C         50.95084        56.50774         2.23541
C         52.33675        58.75073         2.24045
C         51.42090        59.54792         2.87417
C         52.60715        61.65530         2.50551
C         51.61664        60.96656         3.10946
C         55.11399        40.36523        -1.41017
C         55.02078        41.78589        -1.31398
C         53.78155        42.45903        -1.02883
C         54.90356        44.63861        -1.16108
C         53.73662        43.87684        -0.90006
C         55.00018        45.99936        -0.46590
C         53.68458        46.81794        -0.65141
C         54.95955        48.90556        -0.01634
C         53.70981        48.09265         0.24919
C         54.92421        50.35436         0.10672
C         53.60575        51.11903         0.07292
C         54.79729        53.00432         1.35848
C         53.61052        52.40332         0.89829
C         54.72106        54.35605         2.06853
C         53.49815        55.17279         1.70779
C         54.77385        57.28369         1.82839
C         53.49442        56.55476         1.81032
C         54.80269        58.69396         1.64145
C         53.52545        59.43784         1.66348
C         54.90139        61.60567         1.43866
C         53.59793        60.94507         1.68075
C         54.92943        63.01761         1.29361
C         57.54474        40.45189        -1.78064
C         56.32975        39.75224        -1.67419
C         57.57062        41.96565        -1.92566
C         56.17977        42.55566        -1.61960
C         57.84128        44.96792        -1.16177
C         55.99275        43.93695        -1.70354
C         57.54464        46.08607        -0.45133
C         56.26935        46.87311        -0.75152
C         57.34677        48.81503         0.52515
C         56.19264        48.21842        -0.02878
C         57.34315        50.17209         0.98424
C         56.17701        51.03738         0.71813
C         57.20404        52.87965         2.12055
C         56.02921        52.31891         1.40955
C         57.20977        54.37606         2.49583
C         56.05192        55.08971         1.78122
C         57.24299        57.30016         1.85532
C         56.01476        56.59924         1.95115
C         57.24385        58.67144         1.51209
C         56.02447        59.39284         1.46652
C         57.30717        61.53632         1.02301
C         56.06488        60.84756         1.28471
C         57.31662        62.96061         0.83555
C         56.09383        63.67558         0.98218
C         60.09962        37.63872        -1.94170
C         58.89017        38.36746        -2.06495
C         59.90039        40.36261        -1.02505
C         58.76600        39.71110        -1.70620
C         59.93625        41.83344        -0.87925
C         58.77842        42.62255        -1.16591
C         59.94565        44.52780        -0.06042
C         58.84716        43.98723        -0.80922
C         59.86121        45.83011         0.52833
C         58.53591        46.51057         0.55382
C         59.70545        48.57927         1.50828
C         58.45341        47.94299         1.00063
C         59.77932        50.05584         1.34815
C         58.50075        50.77532         1.45474
C         59.81301        52.86739         1.96867
C         58.52552        52.13544         1.99170
C         59.73198        54.32439         1.61254
C         58.56866        55.09201         2.25941
C         59.83062        57.24936         1.64005
C         58.54243        56.57650         2.05707
C         59.77217        58.61083         1.02360
C         58.47875        59.34775         1.03709
C         59.74134        61.48428         0.62573
C         58.51934        60.82095         0.91689
C         59.75179        62.90455         0.43920
C         58.53363        63.63344         0.52370
C         59.72494        65.74163         0.18626
C         58.56008        65.05956         0.28292
C         62.52989        36.03191        -1.40177
C         62.50328        37.43262        -1.23669
C         61.25705        38.17980        -1.40270
C         62.41874        40.29458        -0.60825
C         61.18152        39.54972        -0.85646
C         62.35884        41.63484        -0.30365
C         61.13509        42.41141        -0.39480
C         62.32716        44.45644         0.46997
C         61.15409        43.78948         0.01688
C         62.27717        45.77584         0.93727
C         61.01406        46.43546         1.04846
C         62.27395        48.58589         1.62490
C         60.99407        47.81525         1.59251
C         62.29687        49.95208         1.73420
C         61.05910        50.74932         1.60092
C         62.28503        52.89688         1.82047
C         61.04064        52.20799         1.86558
C         62.28565        54.31144         1.61528
C         61.07567        55.00526         1.61392
C         62.15627        57.04038         0.52600
C         61.08393        56.46748         1.43040
C         62.23856        58.56243         0.56405
C         61.07588        59.39292         1.07321
C         62.13559        61.41910         0.06303
C         60.97487        60.77127         0.46552
C         62.18413        62.85134         0.00953
C         61.00210        63.57556         0.24667
C         62.32620        65.76640         0.00036
C         61.01479        65.04928         0.32560
C         62.30995        67.14934        -0.49463
C         64.86918        35.94741        -0.72429
C         63.69006        35.31264        -1.14298
C         64.88879        37.35296        -0.55373
C         63.69880        38.08285        -0.82635
C         64.94272        40.19992        -0.15485
C         63.70498        39.55669        -0.69939
C         64.80561        41.52479         0.49830
C         63.54528        42.28983         0.31431
C         64.76931        44.34675         1.08483
C         63.65540        43.79255         0.23582
C         64.72667        45.69954         1.45382
C         63.50481        46.46739         1.32576
C         64.74620        48.54562         1.88615
C         63.51360        47.83245         1.61248
C         64.80651        49.93465         1.78672
C         63.55909        50.72952         1.46789
C         64.82481        52.89401         1.73480
C         63.55753        52.13613         2.14892
C         64.74326        54.30030         1.24448
C         63.54668        54.99727         1.28128
C         64.62787        57.00741         0.34792
C         63.49776        56.36797         0.76199
C         64.53771        58.36390        -0.25276
C         63.33547        59.17545         0.06555
C         64.62575        61.30551        -0.49215
C         63.28831        60.59753        -0.46939
C         64.62872        62.74308        -0.45688
C         63.46352        63.51983        -0.22029
C         64.68815        65.64515        -0.69022
C         63.51849        64.94832        -0.30548
C         64.67031        67.00824        -1.10280
C         63.41020        67.71243        -1.05195
C         67.44874        33.25107        -1.22284
C         66.32025        33.96028        -1.32768
C         67.32773        35.83047        -0.06096
C         66.04286        35.07575        -0.34247
C         67.30854        37.27676         0.16401
C         66.11245        38.01308        -0.06463
C         67.28123        40.06216         0.70004
C         66.13439        39.39959         0.18561
C         67.23510        41.47600         1.05243
C         66.04940        42.21012         0.89965
C         66.99606        44.11258         2.09984
C         65.93296        43.56378         1.32594
C         66.89191        45.47497         2.49861
C         65.86729        46.30755         2.07707
C         67.34508        48.51477         1.88042
C         65.95747        47.78062         2.18658
C         67.23992        49.89800         1.41059
C         66.05255        50.60450         1.58641
C         67.04824        52.67584         0.44290
C         66.04734        52.09118         1.41679
C         67.09772        54.18599         0.48683
C         65.97972        54.92557         0.76264
C         67.13259        57.06146        -0.10208
C         65.98882        56.44637         0.68840
C         67.09644        58.36406        -0.53300
C         65.79233        59.08406        -0.63061
C         67.04156        61.20882        -1.11711
C         65.78995        60.56691        -0.66873
C         67.09356        62.71461        -1.10882
C         65.92577        63.42079        -0.52442
C         67.17541        65.58145        -1.19175
C         65.97387        64.95336        -0.64010
C         67.12845        66.94351        -1.54682
C         65.87742        67.65920        -1.50520
C         67.05693        69.67386        -2.23475
C         65.89304        69.03324        -1.88016
C         69.96018        31.65655        -0.75869
C         69.84168        33.03440        -0.53243
C         68.47259        33.58801        -0.15252
C         69.74956        35.68232         0.55177
C         68.45766        35.09034         0.08263
C         69.76702        37.20547         0.56397
C         68.49178        37.95189         0.55342
C         69.69301        40.01396         1.36111
C         68.48730        39.33503         0.88157
C         69.66721        41.40244         1.70592
C         68.37881        42.09292         1.67587
C         70.12662        44.39284         2.51223
C         68.15425        43.31787         2.32389
C         70.08701        45.79529         2.22369
C         68.89245        46.51387         2.38508
C         69.83780        48.44137         1.22276
C         68.55769        47.66002         1.46127
C         69.71245        49.77700         0.62969
C         68.37620        50.52731         0.68213
C         69.59186        52.66336         0.17295
C         68.39613        51.98017         0.50577
C         69.59383        54.06506        -0.00399
C         68.27813        54.78801        -0.24974
C         69.54759        56.85936        -0.85152
C         68.43347        56.30533         0.02116
C         69.51980        58.30727        -1.22078
C         68.29875        59.08492        -0.95160
C         69.56751        61.20669        -1.27324
C         68.32135        60.46229        -1.13080
C         69.58465        62.65303        -1.29042
C         68.38887        63.41710        -1.16648
C         69.61409        65.51740        -1.57849
C         68.39163        64.82757        -1.27457
C         69.59266        66.91550        -1.87667
C         68.34364        67.62771        -1.90465
C         69.54385        69.70112        -2.55633
C         68.31465        69.00227        -2.23718
C         69.54634        71.07556        -2.90391
C         72.27746        31.92555        -1.40680
C         71.16969        31.10242        -1.18327
C         72.18353        33.29647        -1.17554
C         70.97587        33.85992        -0.72455
C         71.47713        36.36715        -0.92620
C         70.84924        35.28131        -0.41740
C         70.90269        37.62307        -0.38978
C         71.00626        37.86163         1.12153
C         72.06385        39.92800         1.96125
C         70.90238        39.28823         1.51262
C         72.07836        41.31014         2.11775
C         70.90741        42.07117         1.97095
C         72.16866        44.16060         1.27959
C         71.07250        43.54480         1.94663
C         72.23547        45.54249         1.10359
C         71.18044        46.38476         1.51183
C         72.25623        48.55028         0.83502
C         71.07927        47.80347         1.20908
C         72.18965        49.86562         0.47650
C         70.93576        50.56448         0.38832
C         72.02046        52.62986        -0.40292
C         70.85420        51.92103         0.08834
C         72.03700        53.96944        -0.53373
C         70.91411        54.82137         0.00005
C         72.08833        56.96964        -0.81102
C         70.86041        56.14918        -0.74823
C         72.07545        58.29059        -1.07437
C         70.84122        59.04483        -1.39074
C         72.01931        61.24518        -1.29664
C         70.80670        60.52168        -1.29378
C         72.03184        62.62384        -1.37259
C         70.82444        63.35761        -1.40574
C         72.03312        65.50517        -1.85614
C         70.83324        64.79156        -1.59597
C         72.01789        66.85700        -2.12897
C         70.80644        67.59463        -2.17091
C         71.97589        69.70842        -2.82090
C         70.78534        69.00269        -2.51451
C         71.94912        71.05149        -3.15650
C         70.72451        71.74011        -3.19957
O         60.86531        57.19156         2.69261
O         64.92748        58.45139        -1.68144
O         50.39794        44.24651        -1.89676
O         66.80229        62.00275        -2.35410
O         64.66970        40.23326        -1.60200
O         57.98807        46.85184         1.86907
O         49.92847        49.59352        -1.14683
O         60.16117        48.05801         2.78584
O         60.21027        39.68153         0.24553
O         55.89674        51.05739        -0.72995
O         59.02192        58.67982        -0.20879
O         45.01521        52.49930         1.97596
O         66.24159        64.24199         0.62840
O         57.04672        44.67214        -2.28653
O         58.80054        55.96934         3.37691
O         69.08917        43.81656         3.25223
O         63.81944        41.64899         1.60459
O         50.24870        59.10150         3.45598
O         57.72723        52.13187         3.27801
O         67.95950        46.01018         3.25496
O         51.22932        55.63811         3.35499
O         60.56360        50.50919         0.16673
O         66.82419        48.31322         3.21718
O         70.04260        56.03977        -1.96134
O         46.15579        54.64740         2.40335
O         61.86033        65.60967         1.39364
O         68.76909        49.75283        -0.53380
O         70.08371        58.55368        -2.54345
O         53.14758        60.22661         0.46334
O         65.93354        52.76597         2.71511
O         61.35759        59.71480         2.46799
H         61.36880        58.86256         2.97186
O         63.57517        50.96627         0.02877
H         62.64826        50.96312        -0.29915
O         59.31003        54.32753         0.18743
H         60.02154        53.91113        -0.34533
O         66.24795        56.89473         2.08071
H         65.61929        56.41745         2.66571
O         57.84716        42.21185        -3.33576
H         57.73335        43.17832        -3.48325
O         53.44694        51.59878        -1.29936
H         54.35018        51.82460        -1.62295
O         55.14617        45.61996         0.93423
H         54.46992        44.94078         1.14457
O         64.01204        44.06012        -1.16149
H         64.10280        45.03008        -1.27171
O         68.88271        56.47753         1.39004
H         68.08424        56.58610         1.96315
O         56.32756        54.91102         0.36481
H         55.70031        55.45897        -0.15196
O         61.73007        56.69185        -0.82116
H         62.33639        57.12597        -1.45866
O         68.18913        47.07662         0.16000
H         68.27716        47.81489        -0.49433
O         56.98977        54.45720         3.91619
H         57.50864        53.72344         4.32386
O         65.67028        34.41276         0.92125
H         65.46256        35.11599         1.57288
O         51.08482        47.87829         1.88263
H         51.99896        47.69198         2.21068
O         54.47742        54.08469         3.46709
H         55.31940        54.19570         3.97714
O         51.86197        57.48846         0.28886
H         52.34586        58.27527        -0.04771
O         68.07743        32.95463         1.09739
H         67.14911        33.25432         1.27295
O         49.76945        53.42745         3.22146
H         50.10013        54.04276         3.91480
O         66.53839        52.33987        -0.88256
H         67.01351        52.92503        -1.52507
O         53.78671        47.70146         1.65837
H         54.53904        47.06033         1.75399
O         71.93002        37.12344         1.86782
H         71.57867        36.21048         1.98863
O         70.02368        35.15130         1.87742
H         69.68307        34.22717         1.90241
O         49.70920        53.76810        -0.40013
H         49.84069        53.11294        -1.11797
O         67.92282        54.57871        -1.65438
H         68.68226        54.92243        -2.19343
O         63.57979        51.94116         3.57767
H         64.50986        52.08112         3.87345
O         56.27601        47.24080        -2.15360
H         56.48965        46.42466        -2.66774
O         62.96246        60.40781        -1.88951
H         63.66912        59.82508        -2.26353
O         53.59456        47.25346        -2.01738
H         54.48222        47.58859        -2.29837
O         71.26318        55.14858         1.38266
H         71.20051        54.32508         1.90982
H         38.12824        48.89279        -2.63433
H         36.44571        50.01050        -4.03564
H         38.71550        53.66710        -3.93400
H         36.74372        52.40716        -4.69776
H         39.49452        48.00524        -1.68106
H         40.24353        54.62647        -3.33853
H         41.32261        46.83909        -0.58973
H         42.08044        55.90886        -2.37621
H         44.99196        44.71727         0.37437
H         42.89107        45.89598         0.07641
H         45.67248        57.99528        -0.65452
H         43.81873        56.83887        -1.77048
H         46.69104        43.80025         0.46841
H         46.20194        58.98739         1.42400
H         48.70478        42.67015        -0.30267
H         48.01282        60.15220         2.71434
H         52.60227        40.61852        -0.75372
H         50.44769        41.73143        -0.58843
H         52.75139        62.72249         2.72464
H         50.88996        61.47410         3.75846
H         54.22941        39.73525        -1.25586
H         53.99762        63.59075         1.39008
H         56.36199        38.65296        -1.67132
H         56.06609        64.76468         0.85343
H         60.10716        36.61085        -2.33100
H         58.04273        37.86161        -2.54875
H         59.70952        66.83447         0.07811
H         57.61625        65.61522         0.20659
H         61.62356        35.49220        -1.70610
H         61.39508        67.74632        -0.38074
H         63.67400        34.21836        -1.24142
H         63.34967        68.74858        -1.40959
H         67.65549        32.41847        -1.91254
H         65.57678        33.72583        -2.10413
H         67.00251        70.73623        -2.50558
H         64.96074        69.61253        -1.88077
H         69.08971        31.00633        -0.59198
H         68.60344        71.63651        -2.94535
H         73.22569        31.49048        -1.75196
H         71.24716        30.01904        -1.34975
H         73.05790        33.94510        -1.32677
H         72.27903        36.35200        -1.67539
H         70.78572        38.49805        -1.04924
H         72.97754        39.33766         2.10889
H         73.02108        41.81831         2.36453
H         72.96513        43.52970         0.86024
H         73.09182        45.96566         0.56070
H         73.23299        48.04980         0.87922
H         73.12195        50.40105         0.25330
H         72.88639        52.04719        -0.74699
H         72.92148        54.46443        -0.95985
H         73.03859        56.49519        -0.52465
H         73.02579        58.84002        -1.01856
H         72.97806        60.71137        -1.29521
H         72.99969        63.13866        -1.41905
H         72.99855        64.98277        -1.86284
H         72.97376        67.35616        -2.33463
H         72.94498        69.19286        -2.79573
H         72.88428        71.57882        -3.39017
H         70.70263        72.80544        -3.46752
