         317
 CSIRO Nanostructure Databank - Neutral Graphene Oxide Data Set
C         30.31603        31.54464         0.66849
C         30.28308        32.79065         0.60700
C         30.33228        35.96482         0.47054
C         30.37964        37.18589         0.66325
C         30.34685        40.28933        -0.15588
C         30.25426        41.34833        -0.81691
C         32.77520        28.68484         0.52125
C         31.69039        29.28353         0.65586
C         32.68894        31.42811         0.68211
C         31.49376        30.71582         0.68843
C         32.65752        32.94411         0.78089
C         31.42046        33.55957        -0.02334
C         32.74940        35.84565         0.34156
C         31.45770        35.08223         0.08866
C         32.76141        37.33514         0.65253
C         31.46381        38.12652         0.60643
C         32.66683        39.98577        -0.60573
C         31.42802        39.41590         0.15375
C         32.63260        41.49237        -0.89782
C         31.42629        42.13074        -1.17156
C         32.66398        44.13025        -1.82699
C         31.61774        43.48140        -1.63193
C         35.55987        27.67464        -0.32889
C         35.37056        28.65942         0.61433
C         34.06648        29.24695         1.02750
C         35.26363        31.55863         0.87713
C         34.03228        30.76185         0.42991
C         35.28344        32.92857         0.70565
C         33.98876        33.59573         0.22536
C         35.29371        35.78508         0.32052
C         34.02606        35.09326         0.72176
C         35.19169        37.15690        -0.30564
C         34.04801        38.02158         0.31548
C         35.17805        39.98250        -0.81443
C         33.98673        39.54807         0.07106
C         35.23328        41.52604        -0.96396
C         33.92176        42.24753        -1.08113
C         35.26165        44.39605        -1.44475
C         33.90769        43.80675        -0.97321
C         35.38744        45.89218        -1.24383
C         37.96404        27.25465         1.24781
C         35.99933        26.71277        -1.01242
C         37.84886        28.58481         0.95603
C         36.55897        29.29727         1.18053
C         37.79063        31.60490         1.00467
C         36.52510        30.87942         1.20675
C         37.78591        32.99070         0.80115
C         36.51476        33.68526         0.71849
C         37.78411        35.90161         0.55834
C         36.49335        35.10598         0.46847
C         37.71086        37.25479        -0.11001
C         36.51808        37.88377        -0.32413
C         37.63391        40.07706        -1.09016
C         36.49363        39.40814        -0.28717
C         37.81895        41.58107        -0.65896
C         36.50217        42.30327        -0.60233
C         37.78932        44.54886        -0.57563
C         36.42113        43.83340        -0.51950
C         37.69464        46.10714        -0.33643
C         36.47805        46.46562        -1.14026
C         40.63262        24.68110         1.66645
C         39.51097        25.19175         1.50164
C         40.42165        27.28182         0.76649
C         39.12526        26.44374         0.73665
C         40.31661        28.73918         0.46640
C         38.94610        29.41901         0.32317
C         40.33587        31.55114         0.87314
C         39.03846        30.74554         1.12091
C         40.33052        33.05115         0.88035
C         39.03986        33.76381         0.65664
C         40.32279        35.84491         0.15961
C         39.05697        35.10549         0.33798
C         40.30327        37.24972        -0.47106
C         38.95576        37.96876        -0.42049
C         40.55098        40.43960        -0.67213
C         38.83525        39.19338        -1.00943
C         40.32340        41.72816        -0.35047
C         39.10422        42.41231        -0.96282
C         40.34964        44.60429        -0.45723
C         38.98087        43.89153        -0.56842
C         40.16320        46.04860         0.12137
C         39.00311        46.76426        -0.74942
C         40.19757        48.89294        -0.14149
C         39.20720        48.20310        -0.41883
C         43.28012        24.85783         1.49315
C         41.94604        25.28889         1.91149
C         42.97751        27.48272         0.57086
C         41.72328        26.58655         0.49821
C         42.80365        28.76919        -0.19495
C         41.45290        29.46312        -0.23253
C         42.57448        31.71694        -0.51058
C         41.65268        30.87796         0.43047
C         42.77726        33.13273        -0.02823
C         41.68077        33.79771         0.79525
C         42.84945        35.99870         0.53833
C         41.53116        35.25186         0.40702
C         42.86421        37.40854        -0.07006
C         41.51002        38.10868         0.03046
C         42.87414        40.38422        -0.32078
C         41.60240        39.59472        -0.07595
C         42.76779        41.71318         0.45435
C         41.28961        42.36539         0.64670
C         42.12601        44.63089         1.32264
C         41.31744        43.88585         0.49056
C         42.47565        46.08184         1.14622
C         41.49186        46.85066         0.20203
C         42.75170        48.84927         0.60985
C         41.32096        48.36023         0.69624
C         44.24552        25.51714         1.00290
C         44.98261        27.01819        -0.97067
C         44.14964        26.61968         0.12809
C         45.28295        28.89525        -0.40811
C         43.92701        29.54556        -0.49038
C         45.09888        31.68344        -1.07355
C         43.86979        30.94430        -0.74453
C         45.17674        33.16151        -0.78043
C         43.95773        33.86286        -0.26657
C         45.34181        36.00678        -0.22014
C         44.04020        35.24198        -0.00692
C         45.36721        37.43868         0.30520
C         44.06154        38.21248         0.52468
C         45.43400        40.30935         0.07994
C         44.15577        39.58658        -0.11749
C         45.44000        41.82634         0.04591
C         44.07685        42.43265         0.53643
C         45.26206        44.54608         1.47961
C         44.27364        43.92467         0.48395
C         45.18945        46.08267         1.39385
C         43.88648        46.76314         1.31435
C         43.74379        48.15586         0.84605
C         47.43638        27.33513        -1.02642
C         46.40401        26.64823        -1.03121
C         47.72207        28.74071        -1.14775
C         46.36025        29.40573        -1.39878
C         47.71641        31.57882        -1.00968
C         46.37870        30.95348        -1.34084
C         47.76601        32.98945        -0.51745
C         46.50717        33.81345        -0.51445
C         47.85877        35.84511         0.34073
C         46.50061        35.10842         0.31048
C         47.85642        37.34088         0.26966
C         46.56615        38.10413         0.27837
C         47.84251        40.21043         0.66785
C         46.65080        39.55327         0.47225
C         47.85276        41.63322         1.09568
C         46.50330        42.36549         1.08592
C         47.91298        44.57931         1.50971
C         46.62303        43.92064         0.95659
C         47.62272        45.95648         1.69904
C         46.49198        46.53670         1.50896
C         50.22391        28.81907        -1.20731
C         48.91738        29.39130        -1.25416
C         50.24967        31.72239        -1.62222
C         48.91657        30.88585        -1.69555
C         50.28104        32.84192        -0.55850
C         49.05718        33.79278        -0.72654
C         50.38726        35.82936        -0.15310
C         49.15875        35.01583         0.23119
C         50.39331        37.33449        -0.45482
C         49.09503        38.09929        -0.13152
C         50.42823        40.24237         0.51277
C         49.10911        39.56865         0.21662
C         50.45842        41.60371         1.16833
C         49.14000        42.36619         1.36551
C         50.45579        44.35450         1.38874
C         49.10951        43.88449         1.40982
C         51.32792        29.41986        -1.25993
C         52.76889        31.58329        -1.05672
C         51.73296        30.74686        -1.30981
C         52.64242        32.87238        -0.90412
C         51.60586        33.70457        -0.61920
C         52.66735        36.04303        -0.52027
C         51.55312        35.12394        -0.43279
C         52.82935        37.26396        -0.38749
C         51.65801        38.08540         0.17431
C         52.81203        40.40564         0.31452
C         51.65209        39.58497        -0.19924
C         52.83956        41.59084         0.65736
C         51.91513        42.43292         1.46308
C         51.55094        43.82885         1.10128
O         40.55568        28.27034         1.83565
O         41.34011        38.95117         1.20141
O         47.82398        31.87482         0.41419
O         33.72274        37.69520         1.71029
O         32.23448        35.64242        -1.00889
O         39.89822        39.77731        -1.74072
O         48.41046        41.77432         2.48013
O         40.41708        32.29966         2.13878
O         34.68613        41.86915        -2.27400
O         34.01416        33.45642        -1.15218
O         45.89612        33.87954        -1.82143
O         42.91843        46.63382         2.42069
O         47.99180        36.64722         1.57471
O         43.52866        41.75256         1.68753
O         37.19880        41.87260         0.61087
O         50.56510        40.39174         1.96388
O         45.04328        39.72365        -1.24169
O         45.66651        31.47640        -2.49928
O         36.43376        30.02965         2.41161
O         48.88110        39.10765        -1.16385
O         46.01255        29.05869        -2.75712
H         45.57120        29.86705        -3.13988
O         51.61383        37.93922         1.57005
H         52.29143        38.51791         1.97824
O         40.92673        48.36531         2.04308
H         40.82054        49.28892         2.35006
O         31.46201        33.20563        -1.37874
H         32.39609        33.38933        -1.69366
O         34.84827        36.87016        -1.68276
H         34.11212        36.21821        -1.71692
O         39.73318        45.86202         1.46516
H         39.71373        46.73554         1.91898
O         42.08056        46.93094        -1.09367
H         42.06229        46.03848        -1.51770
O         36.69070        39.63107         1.12131
H         35.86603        40.00684         1.51439
O         40.56039        36.99383        -1.89232
H         40.31855        37.81064        -2.38644
O         34.07355        40.22470         1.33679
H         33.73524        39.60097         2.02438
O         50.54455        37.36553        -1.88607
H         50.05632        38.15189        -2.22816
O         32.55795        39.32259        -1.87642
H         31.71631        39.59724        -2.29853
O         32.39644        33.28307         2.14859
H         33.18317        33.07531         2.69414
O         44.34001        27.17135        -2.16745
H         44.95405        27.61808        -2.80386
O         50.28500        32.18971         0.69622
H         50.06641        32.84608         1.40073
O         38.60510        29.75029        -1.02065
H         38.59313        28.93984        -1.57126
O         45.58130        36.22054        -1.63070
H         44.81718        36.74604        -1.97439
O         42.41661        30.69455         1.64416
H         41.80382        30.34887         2.32978
O         49.37698        34.49468         1.56415
H         49.26030        35.24676         2.18966
O         38.87487        26.12802        -0.63425
H         37.89097        26.07426        -0.79441
O         45.67061        42.17697        -1.30541
O         48.59103        30.82597        -3.10526
H         47.84795        30.19612        -3.24438
O         35.55145        44.09434        -2.78446
H         34.75399        44.26082        -3.32915
O         39.10180        30.28928         2.49154
H         39.19023        31.08249         3.06502
O         36.00011        44.10904         0.84559
H         36.52091        43.50383         1.42517
O         41.69920        25.90414        -0.69996
H         40.77441        25.64591        -0.92656
O         37.29607        40.13888        -2.49196
H         38.04454        40.56312        -2.96388
O         41.87500        31.92551        -1.79597
H         42.50843        32.36118        -2.40646
O         44.08083        44.51578        -0.57670
H         45.53836        43.14513        -1.43186
O         35.00141        39.38866        -2.09200
H         34.71740        40.08602        -2.72689
O         34.11200        35.03200         2.17078
H         34.15340        35.96502         2.49072
O         52.17257        42.34449         2.82245
H         52.01329        41.41966         3.11154
O         41.99086        25.90795         3.13938
H         41.08532        26.04276         3.48470
O         45.92065        42.01736         2.34263
H         46.63821        41.93890         3.01138
O         45.77379        28.87139         0.85911
H         45.03541        28.76993         1.51018
O         43.92463        38.54127         1.91120
H         43.56595        37.76198         2.39802
O         42.26487        33.74530         2.13889
H         42.36753        32.78980         2.36480
O         41.02172        29.50560        -1.60210
H         41.46573        30.25766        -2.06392
O         40.90893        44.64718        -1.78969
H         40.41524        44.00447        -2.35551
O         43.27236        27.85869         1.94338
H         42.43774        28.22939         2.32336
O         46.74770        44.25301        -0.43756
H         46.79712        45.23073        -0.51812
O         43.14628        37.30372        -1.48624
H         42.31413        36.99535        -1.93535
O         34.20479        30.67859        -0.99105
H         34.11944        31.61455        -1.34066
O         40.87583        41.98020         1.95395
H         41.59101        42.24021         2.57766
O         37.88356        36.25204         1.98726
H         37.94686        35.42043         2.50353
O         45.05108        44.22154         2.84839
H         45.82453        44.53886         3.35992
O         33.60794        44.19952         0.33504
H         33.86859        45.13822         0.45209
O         42.80885        40.75519        -1.72010
H         43.73307        40.67947        -2.07377
O         51.52315        39.77546        -1.59056
H         52.17324        39.19665        -2.04373
O         49.00993        34.34791        -2.04119
H         49.49121        33.75644        -2.67213
O         43.06195        36.16013         1.96809
H         42.97519        35.26878         2.39190
O         39.20161        46.54884        -2.12632
H         40.03528        46.98951        -2.39665
O         46.19851        34.71583         1.65860
H         46.54108        35.42346         2.25174
O         39.28326        42.42779        -2.41114
H         39.83826        41.65477        -2.66028
O         50.50801        32.30342        -2.87023
H         50.14830        31.71109        -3.57146
O         34.01128        29.30160         2.43975
H         33.11973        29.60453         2.71193
O         37.02141        26.54289         1.89708
H         36.24677        27.10271         2.11324
O         42.58645        44.07562         2.46876
H         43.03429        44.77913         2.99848
O         37.40341        46.40235         1.01288
H         36.65987        45.81229         1.28525
