         278
 CSIRO Nanostructure Databank - Neutral Graphene Oxide Data Set
C        -11.35900         0.57298         0.06399
C        -10.09083         1.31642        -0.28456
C         -8.92794         0.83070         0.62134
C         -7.61183         1.53000         0.12781
C         -6.29502         0.75736         0.38494
C         -5.08902         1.50854         0.91971
C         -3.76062         0.77622         1.08762
C         -2.48125         1.52113         1.30002
C         -1.19261         0.75191         0.97018
C          0.08852         1.51902         1.27067
C          1.34467         0.69898         1.30498
C          2.49021         1.14548         0.41124
C          3.87859         0.56023         0.67872
C          5.15702         1.31759         0.49578
C          6.54265         0.68254         0.60227
C          7.38457         1.37088        -0.56036
C          8.76964         0.67813        -0.71018
C         10.10093         1.38734        -0.42336
C         10.84742         0.63925         0.67386
C        -10.22519         2.85993        -0.11695
C         -8.90157         3.63776        -0.09263
C         -7.70281         2.98820         0.54863
C         -6.44461         3.75540         0.78271
C         -5.12963         3.01110         1.07389
C         -3.80873         3.78408         1.08728
C         -2.42891         3.06214         1.34257
C         -1.28675         3.56637         0.44365
C          0.10275         3.01163         0.83862
C          1.23196         3.39355        -0.11543
C          2.51835         2.62356        -0.05192
C          3.78526         3.43840         0.15100
C          5.08514         2.81313         0.56619
C          6.42757         3.54675         0.61553
C          7.44039         2.97482        -0.43948
C          8.80497         3.56253        -0.08390
C          9.94356         2.85009        -0.08065
C         -8.82722         4.90344        -0.55261
C         -7.50114         5.61394        -0.72292
C         -6.42888         5.16809         0.28992
C         -5.12149         5.85780         0.12851
C         -3.81712         5.17825         0.50374
C         -2.52734         5.81696         0.00163
C         -1.33119         4.92560        -0.21051
C         -0.06874         5.56680        -0.79877
C          1.22261         4.84139        -0.57416
C          2.51566         5.60325        -0.55748
C          3.80630         4.87769        -0.28498
C          4.99813         5.70603         0.10604
C          6.30019         5.05409         0.43071
C          7.55273         5.81044         0.15442
C          8.85808         5.04016         0.29732
C         -7.54079         7.13529        -0.73322
C         -6.36254         7.81125        -0.85820
C         -5.13359         6.95922        -0.89367
C         -3.86284         7.45551        -1.44246
C         -2.57087         7.10031        -0.77489
C         -1.34814         7.77249        -1.34423
C         -0.06879         7.01664        -1.28417
C          1.25535         7.79601        -1.51450
C          2.43927         7.04752        -0.15295
C          3.69015         7.83011        -0.11159
C          5.02690         7.13012        -0.44416
C          6.22733         7.94743         0.11372
C          7.50861         7.14378        -0.06996
C         -6.23347         9.25406        -0.62479
C         -5.10949        10.03216        -0.58711
C         -3.78831         9.65050        -1.09102
C         -2.53319         9.96556        -0.68152
C         -1.32247         9.33484        -1.37667
C         -0.01441         9.86695        -0.80578
C          1.21568         9.28308        -0.95513
C          2.45817         9.96625        -0.84241
C          3.69588         9.35286        -0.41586
C          5.01469         9.93113        -0.78893
C          6.18196         9.29659        -0.57522
C        -11.35056        -0.73271         0.35649
C        -10.12347        -1.55881         0.68642
C         -8.85084        -0.69189         0.87225
C         -7.54938        -1.44717         0.89907
C         -6.27616        -0.74256         0.51629
C         -4.94616        -1.46141         0.67427
C         -3.67136        -0.69436         0.78092
C         -2.45756        -1.46368         1.22822
C         -1.18831        -0.70725         1.46871
C          0.09442        -1.46149         1.41430
C          1.27828        -0.80385         1.31012
C          2.57840        -1.60404         1.39023
C          3.90937        -0.88774         1.07404
C          5.13069        -1.61257         0.57352
C          6.43299        -0.84303         0.36967
C          7.58676        -1.55851        -0.23052
C          8.81842        -0.81565        -0.65075
C         10.13881        -1.53807        -0.31341
C         10.86801        -0.69910         0.72765
C         -9.79198        -2.60456        -0.43474
C         -8.61740        -3.51462        -0.08485
C         -7.61251        -2.99575         0.92203
C         -6.24404        -3.67941         0.85973
C         -4.92840        -2.92969         0.94087
C         -3.66980        -3.64632         0.65127
C         -2.35055        -2.88227         0.65651
C         -1.27035        -3.67715         1.38445
C          0.06083        -2.96275         1.72828
C          1.19040        -3.66310         0.93676
C          2.43573        -2.90998         0.60525
C          3.64646        -3.65525         0.03705
C          4.87583        -2.82221        -0.36247
C          6.13001        -3.66574        -0.71109
C          7.48015        -2.98262        -0.68281
C          8.72250        -3.75251        -0.40148
C          9.92750        -3.00306         0.17177
C         -8.49441        -4.78369        -0.54189
C         -7.35860        -5.65753        -0.21933
C         -6.18446        -5.07279         0.40142
C         -4.95392        -5.73184         0.39335
C         -3.69913        -5.00731         0.46610
C         -2.40065        -5.75917         0.31939
C         -1.29650        -5.15967         1.17925
C         -0.00071        -5.94184         1.25232
C          1.26654        -5.15865         1.07878
C          2.59025        -5.86800         0.84251
C          3.68945        -5.16297         0.08444
C          4.86121        -6.02406        -0.45070
C          6.12815        -5.18887        -0.75660
C          7.47018        -5.88640        -0.68567
C          8.69202        -5.10671        -0.39432
C         -7.33071        -6.96358        -0.65874
C         -6.22974        -7.85767        -0.29461
C         -4.95381        -7.19412         0.24921
C         -3.66264        -7.90123         0.08470
C         -2.50770        -7.25294         0.40898
C         -1.16154        -7.75738        -0.01521
C         -0.04251        -7.46497         1.01958
C          1.29684        -8.06256         0.56761
C          2.58395        -7.38764         0.80151
C          3.86973        -8.13458         0.52482
C          5.18269        -7.26487         0.44345
C          6.34428        -8.04471        -0.18622
C          7.47263        -7.36400        -0.51164
C         -6.06928        -9.18051        -0.93832
C         -4.88192        -9.83210        -0.96019
C         -3.63790        -9.24045        -0.49289
C         -2.42254        -9.83331        -0.76589
C         -1.16650        -9.19174        -0.47281
C          0.02615        -9.85156        -0.58709
C          1.29308        -9.24264        -0.19922
C          2.48878        -9.87259        -0.63231
C          3.79605        -9.50762        -0.16047
C          5.04588       -10.09393        -0.68209
C          6.22707        -9.44641        -0.56269
O         -1.74854        -4.56374         2.43172
O          1.84158         7.63896        -2.60714
O          3.16045        -4.45849        -1.07580
O          0.75895        -5.54990         2.41271
O          6.67832         1.09830        -1.75770
H          6.65467         1.96395        -2.25655
O         -4.57315         6.45389        -2.17504
O         -3.81649         4.95654         1.94232
O          4.15349         3.30617         1.57496
O          0.26859        -3.06791         3.14159
H         -0.16012        -3.90417         3.44738
O          6.09941         8.20173         1.52099
H          6.00068         7.33110         1.97507
O         -3.21036         1.00781         2.43067
O          8.80752        -0.13621        -1.92697
O         -0.85411         7.13305        -2.53667
O         -1.67503         3.69097        -0.93633
O          0.83313         1.32261         2.50834
O         -3.86559         8.69150        -2.12555
O         -6.18280        -0.10773        -0.79229
O         -4.10227        -1.16688        -0.51393
O          4.46712        -2.15242        -1.57429
H          5.23068        -2.16366        -2.20134
O          5.20944         7.10751        -1.85900
H          4.56751         6.47283        -2.26255
O          3.39103         5.19996        -1.64483
O          4.51996         0.73936        -0.66618
O         -8.12833        -3.41269         2.21090
H         -7.41859        -3.25004         2.87386
O         -1.87614        -2.74828        -0.69895
H         -2.52253        -2.19271        -1.19343
O         -1.87636        -5.69757        -1.07880
O         -2.02748        -1.17354         2.57562
O          5.42746         5.61818         1.49575
O        -11.06467         3.35179        -1.15608
H        -10.81044         2.86347        -1.97043
O         -7.40533         3.47590         1.86752
O          6.77234        -3.15850        -1.93427
O          3.87891        -9.29958         1.31968
O          1.33298        -3.01563        -0.35014
O         -8.13825        -0.91806         2.13034
O          3.67060         8.77314         0.96391
O          4.38024        -6.60560        -1.67413
H          4.20111        -5.87257        -2.30470
O          4.88456        -1.46619         1.99807
O          2.05360         0.37174        -0.75590
H          2.74197         0.46109        -1.45650
O          6.79357        -5.61880        -1.97497
O         -0.89991        -6.84527        -1.17473
O         -5.99743         6.16073         1.25555
O         -5.89898        -7.86426         1.13477
O         10.94978        -1.59991        -1.49415
H         11.04159        -0.67117        -1.82335
O          9.79904        -3.03139         1.60113
H          8.94827        -2.60731         1.85164
O         -9.44656        -1.83510        -1.60652
H         -9.32728        -2.44784        -2.36158
O         -1.20452         0.64359        -0.47964
H         -0.30247         0.41720        -0.80582
O          0.54909         4.81325        -1.87178
O         -5.57247        -3.41514         2.15137
O         -1.33709         9.72760        -2.76188
H         -0.96358         8.97857        -3.28341
O          1.71951         2.65619        -1.26443
O         -9.89383         1.02725        -1.68470
H         -9.90190         0.04690        -1.79813
O         -5.36863         2.13905         2.20879
O          9.23130         5.11310         1.68614
H          8.58661         4.55392         2.18107
O          5.42987        -6.89974         1.73297
O          2.86852        -6.62574         2.03012
O          7.05441         3.52955        -1.65533
O          7.44549        -1.51286         1.23667
O          7.13474         0.91444         1.86915
H          7.48047         0.05479         2.20575
O         -6.97716         5.15430        -2.00092
H         -7.61932         5.38722        -2.70291
O         -2.42458         7.11095         0.68728
O          0.48446         3.79581         1.99254
H         -0.18618         3.64149         2.70266
O          6.97456         3.38308         1.93493
H          6.25525         3.58605         2.57304
O        -10.47946        -2.24034         1.88401
H         -9.65656        -2.58356         2.31641
O         10.92183         1.28948        -1.61798
H         10.35816         1.53379        -2.38326
O         -7.62405         1.74173        -1.29971
H         -7.43439         0.89248        -1.75693
O         -0.41600        -8.08327         2.26041
H          0.17059        -7.72142         2.96073
O         -9.25528         1.39472         1.90494
H         -8.70983         0.94720         2.58979
O          1.67053         7.19203         0.99206
H          2.04426         7.96058         1.49435
O         -2.04659         3.37551         2.69230
H         -2.70966         2.96301         3.29091
O          2.72252        -1.97589         2.78088
H          1.85903        -2.29927         3.14239
H         11.44574        -1.21738         1.50776
H         11.41417         1.23348         1.40725
H         10.88208         3.37262         0.17049
H          9.66128         5.55599        -0.28686
H          8.44594         7.69684        -0.24143
H          7.12577         9.77242        -0.88157
H          4.99851        10.91000        -1.29204
H          2.52902        10.97351        -1.28732
H         -0.05535        10.85993        -0.32797
H         -2.36694        10.68619         0.13175
H         -5.21924        11.05695        -0.19740
H         -7.16988         9.73802        -0.29977
H         -8.49547         7.66806        -0.60205
H         -9.72064         5.35662        -1.01276
H        -10.74167         3.05205         0.86044
H        -12.31648         1.09402        -0.09097
H        -12.30473        -1.25790         0.51869
H        -10.69509        -3.23224        -0.66067
H         -9.27180        -5.20541        -1.19982
H         -8.14589        -7.35272        -1.28700
H         -6.95713        -9.64140        -1.39650
H         -4.81723       -10.82251        -1.43503
H         -2.39646       -10.83582        -1.21924
H          0.04476       -10.89146        -0.94478
H          2.41226       -10.63614        -1.42178
H          5.00187       -11.10682        -1.10728
H          7.14246        -9.93438        -0.93234
H          8.33983        -7.90849        -0.92202
H          9.58819        -5.66918        -0.09095
H         10.85383        -3.57605        -0.07611
