         275
 CSIRO Nanostructure Databank - Neutral Graphene Oxide Data Set
C        -11.15400         0.71778        -0.37706
C        -10.00387         1.54150        -0.92424
C         -8.72226         0.71265        -1.07652
C         -7.41864         1.45911        -1.16524
C         -6.12205         0.74242        -0.90269
C         -5.05423         1.53128        -0.17495
C         -3.82373         0.70192         0.15362
C         -2.54599         1.46043         0.22330
C         -1.29277         0.74493         0.60394
C         -0.04910         1.55411         0.77952
C          1.25046         0.83113         0.95954
C          2.35617         1.36789         0.06016
C          3.58433         0.58035        -0.25511
C          4.82114         1.29580        -0.79106
C          6.11857         0.61899        -0.46752
C          7.34541         1.40971        -0.05717
C          8.62276         0.70050        -0.56664
C          9.88142         1.48534        -0.29009
C         11.12395         0.72668        -0.46229
C         -9.71063         2.78272        -0.02995
C         -8.56145         3.65217        -0.53022
C         -7.38605         2.96207        -1.12391
C         -6.05448         3.67044        -1.13789
C         -4.79372         2.86725        -0.89625
C         -3.52106         3.60949        -0.64019
C         -2.66338         2.97539         0.44259
C         -1.29750         3.68418         0.75464
C         -0.10569         2.93044         0.12541
C          1.22605         3.63113         0.34240
C          2.32288         2.84699        -0.31830
C          3.50088         3.57219        -0.90668
C          4.79258         2.80985        -1.27947
C          6.13410         3.55110        -0.98968
C          7.36851         2.85971        -0.49390
C          8.55863         3.63262         0.07803
C          9.83967         2.82043        -0.05488
C         -8.50334         4.98805        -0.28216
C         -7.30413         5.79626        -0.51099
C         -6.01757         5.09972        -0.71864
C         -4.83771         5.76190        -0.58343
C         -3.48106         5.12777        -0.85739
C         -2.34991         5.83724        -0.09632
C         -1.25542         5.14526         0.39755
C         -0.01576         5.89058         0.85061
C          1.28293         5.10806         0.46436
C          2.32513         5.86297        -0.32223
C          3.45575         5.12183        -1.11547
C          4.83585         5.81667        -1.01005
C          6.13225         5.05961        -1.00680
C          7.39143         5.79187        -0.62795
C          8.70244         5.02128        -0.58313
C         -7.32703         7.16066        -0.47082
C         -6.07289         7.94154        -0.81816
C         -4.84855         7.22987        -0.22855
C         -3.54722         7.93953        -0.58752
C         -2.30653         7.25785        -0.19818
C         -1.11982         8.01636         0.09733
C          0.03870         7.34474         0.46675
C          1.34930         8.04492         0.76751
C          2.40156         7.34326        -0.10006
C          3.67257         8.09394        -0.49267
C          4.93352         7.20087        -0.35772
C          6.18296         7.97831        -0.87266
C          7.40590         7.14124        -0.54382
C         -6.05943         9.38991        -0.36898
C         -4.90791        10.07707        -0.26158
C         -3.58145         9.45783        -0.53335
C         -2.33797        10.14535        -0.13282
C         -1.17101         9.48247         0.09187
C          0.04251        10.27705         0.55444
C          1.35682         9.52918         0.46244
C          2.53342        10.15981         0.25831
C          3.82910         9.38267         0.36711
C          5.11544        10.08814         0.00507
C          6.20843         9.40828        -0.36812
C        -11.11800        -0.60927        -0.12344
C         -9.89396        -1.39721        -0.22594
C         -8.67989        -0.64442        -0.46838
C         -7.46918        -1.18466        -0.06918
C         -6.17152        -0.71324        -0.54647
C         -4.95143        -1.47493        -0.15467
C         -3.79024        -0.67123         0.20396
C         -2.48704        -1.38657         0.41225
C         -1.42509        -0.64003         1.21715
C         -0.08819        -1.42233         1.34763
C          1.24369        -0.62805         1.53035
C          2.56170        -1.37488         1.17963
C          3.74706        -0.72009         0.50054
C          4.97677        -1.51696         0.22444
C          6.16864        -0.80410        -0.01127
C          7.40846        -1.47136         0.01255
C          8.66713        -0.69769         0.00522
C          9.98628        -1.43482        -0.03994
C         11.16454        -0.62779        -0.44305
C         -9.86484        -2.78264        -0.16370
C         -8.68080        -3.63148        -0.35155
C         -7.61112        -3.15361        -1.35646
C         -6.03830        -3.44192        -1.32285
C         -4.91169        -2.80452        -0.50764
C         -3.61869        -3.62946        -0.41035
C         -2.42757        -2.86977         0.20434
C         -1.26155        -3.66739         0.69842
C         -0.05065        -2.92500         1.19236
C          1.26307        -3.71920         1.40032
C          2.58333        -2.89318         1.32034
C          3.83022        -3.62947         0.90951
C          5.02884        -2.89301         0.45181
C          6.25622        -3.59756         0.30016
C          7.46803        -2.87800         0.13890
C          8.72614        -3.59735        -0.00046
C          9.92952        -2.89187        -0.15096
C         -8.67507        -4.90011         0.17896
C         -7.51258        -5.79182         0.15452
C         -6.20681        -5.11791         0.35578
C         -4.95098        -5.76493        -0.06893
C         -3.77098        -5.07058         0.07222
C         -2.55189        -5.81456         0.58879
C         -1.25637        -5.02639         0.59971
C          0.03502        -5.76419         0.43548
C          1.31220        -5.01339         0.60253
C          2.58981        -5.77783         0.57142
C          3.79168        -5.06784         0.55079
C          5.02061        -5.72904         0.26589
C          6.26252        -5.02847         0.25315
C          7.47609        -5.74489         0.02250
C          8.68608        -5.02319        -0.06421
C         -7.54195        -7.15224         0.18876
C         -6.34242        -7.99512        -0.20498
C         -4.99498        -7.24420        -0.25415
C         -3.69795        -7.97536        -0.12398
C         -2.37245        -7.18986        -0.09000
C         -1.23516        -7.99830         0.52817
C          0.05841        -7.26523         0.62819
C          1.38967        -8.02872         0.62262
C          2.54157        -7.13557         0.14649
C          3.72918        -7.66752        -0.36076
C          4.99408        -7.09031        -0.13126
C          6.21336        -7.87254        -0.16768
C          7.41811        -7.18187        -0.07880
C         -6.19850        -9.36004         0.44391
C         -5.02756        -9.99943         0.60652
C         -3.69210        -9.29357         0.63095
C         -2.44940       -10.10784         0.33069
C         -1.25202        -9.48093         0.37580
C          0.06723       -10.22968         0.49257
C          1.30218        -9.46155        -0.03165
C          2.57517       -10.24903         0.33841
C          3.77283        -9.87621        -0.17438
C          5.16294       -10.21033         0.11606
C          6.20580        -9.33410        -0.02050
O         -5.71850        -4.25333        -2.18984
H         -3.96766        -4.19621        -2.28510
O          7.98565        -0.63414        -2.45320
H          7.08508        -0.35686        -2.76404
O         -3.71399         2.85724        -1.87262
O          1.12966        -9.36011        -1.44657
H          1.98994        -9.07350        -1.83544
O          1.19670        -4.24481         2.74455
H          0.97609        -3.49199         3.34062
O          8.58459         0.62524        -2.05375
O         -8.08393         0.92542        -2.36650
O         -4.27619        -7.81837        -1.44047
O         -5.72480         1.87296         1.07158
H         -5.04142         2.31305         1.64449
O         -0.31750        -2.29788         2.49468
O         -3.48988         8.73381        -1.79946
O         -6.71916        -8.33843        -1.57661
H         -5.88040        -8.47062        -2.07830
O         -1.92072        -1.91273        -0.81289
O         -0.73587        -7.56380         1.83971
O          4.02595         9.08165         1.78127
H          3.16165         8.81881         2.19263
O          0.71971        -5.14759        -0.72607
O          1.68675         4.25274         1.57315
O          0.70002         1.67571         2.01111
O          0.68115         8.44270         2.99817
H          0.09092         7.65173         3.15367
O         -0.24068         2.94835        -1.29812
H         -0.75810         2.16090        -1.59872
O          5.59741         0.59115        -1.83480
O         -2.90434        -6.01375         1.98267
H         -2.21799        -6.59957         2.38523
O          1.72007         7.83526         2.18974
O          3.07860         5.29950        -2.49096
H          3.55351         4.61931        -3.02028
O         -1.65865         0.88524        -0.81014
O         -3.16994        -3.92139        -1.76189
O         -8.01213        -2.75198        -2.43043
O        -10.40456         2.03489        -2.21256
H         -9.67469         1.81348        -2.84176
O          3.70354        -8.83018        -1.13519
O          3.52718         8.52565        -1.84676
H          3.11838         7.78696        -2.35399
O         -6.15595        -4.12233         1.09356
O          1.73857        -8.30347         2.00240
H          1.48098        -7.53397         2.55366
O         -7.36248        -1.96778         1.03428
H         -8.24285        -2.11838         1.43618
O         -1.17149         3.74096         2.16331
O          1.29002        -0.48688         2.96283
H          2.16802        -0.11445         3.20175
O         -3.53775        -8.85131         2.02387
H         -3.47115        -9.64944         2.58888
O          7.17823         3.03890        -1.91836
O          3.52158        -3.34495         2.33349
O          5.56356         5.60640        -2.25537
O          2.41535         3.02749        -1.73504
O          8.28907         3.83734         1.49391
H          9.07165         4.26442         1.90204
O          3.59687        -0.66833         1.95689
O         -0.00505       -11.47901        -0.18991
H          0.16523       -11.28525        -1.13795
O          2.43642         0.53117        -1.14598
O          1.66055         6.79524        -1.23583
O          9.41452        -0.87211         1.22943
O         -9.34164         2.27860         1.26236
H         -9.11538         3.03392         1.84271
O          9.21062         4.87107        -1.90895
H          8.56251         4.32596        -2.41395
O         -3.45791         3.12532         1.64727
H         -2.77062         3.33420         2.35763
O          6.16553         8.14845        -2.30396
H          6.08801         7.25413        -2.71534
O         -5.90759        -0.24758        -1.92176
O         -3.17460         5.37547        -2.24417
H         -3.45984         4.58116        -2.75456
O          0.11013        11.52730        -0.12610
H          0.24295        11.35363        -1.08062
O         -6.81804         3.50259        -2.36706
O         -1.93954        -0.42617         2.54428
H         -1.18355        -0.37402         3.16880
O          7.30630         1.33914         1.37888
H          7.83176         2.08573         1.75754
O         -4.96472         7.32796         1.22092
H         -4.38405         6.65232         1.62970
O          5.12879         6.85351         1.03039
H          4.99785         7.67368         1.57927
O         -1.93091        -6.95377        -1.43547
H         -2.73243        -6.90768        -2.00872
O          4.71437         2.78024        -2.71126
H          5.50411         2.29201        -3.03646
O         -0.06487         5.99119         2.29741
H         -0.33368         5.06001         2.60208
O         -5.95444         7.90456        -2.25783
H         -6.74637         8.32725        -2.64771
H         12.11177        -1.15252        -0.63892
H         12.04503         1.29660        -0.65662
H         10.78366         3.37088         0.08932
H          9.45747         5.61387        -0.00342
H          8.36292         7.65449        -0.35396
H          7.15247         9.95381        -0.52839
H          5.19085        11.15920         0.25080
H          2.54575        11.24497         0.07041
H         -0.11556        10.51296         1.64528
H         -2.36054        11.23900        -0.00457
H         -4.91677        11.13226         0.05359
H         -7.01814         9.89348        -0.16690
H         -8.28347         7.69445        -0.35213
H         -9.38255         5.50110         0.14060
H        -10.64031         3.41152         0.05958
H        -12.11379         1.25036        -0.28580
H        -12.04127        -1.12926         0.17704
H        -10.80041        -3.30482         0.09699
H         -9.58903        -5.26130         0.68118
H         -8.51171        -7.67600         0.16218
H         -7.13334        -9.93309         0.55331
H         -5.03225       -11.04894         0.94532
H         -2.50090       -11.20449         0.24736
H          0.22422       -10.44264         1.58445
H          2.50655       -11.03215         1.10643
H          5.39523       -11.23940         0.43252
H          7.20911        -9.75468         0.16427
H          8.36557        -7.74256        -0.08090
H          9.62877        -5.57089        -0.21406
H         10.85101        -3.44140        -0.39667
