         252
 CSIRO Nanostructure Databank - Neutral Graphene Oxide Data Set
C         30.59164        31.81288         1.95316
C         30.58217        32.97715         1.45873
C         30.43633        36.00036         0.41838
C         30.42299        37.12829        -0.09375
C         30.41223        40.15366        -1.54596
C         30.41039        41.37513        -1.71976
C         33.08092        29.12126         2.40430
C         31.97299        29.68382         2.47468
C         32.98081        31.77060         1.78564
C         31.75862        31.05211         2.11388
C         32.88845        33.12066         1.30714
C         31.65320        33.79403         1.08215
C         32.84610        35.87985         0.21719
C         31.56444        35.02011         0.20872
C         32.81457        37.33256        -0.17322
C         31.49670        38.09526        -0.31734
C         32.79361        40.12186        -1.07534
C         31.55844        39.19042        -1.37196
C         32.56830        41.49167        -0.50794
C         31.49449        42.35798        -1.86665
C         32.64012        44.30904        -0.87920
C         31.63836        43.67020        -1.26577
C         35.70661        27.48381         1.86786
C         35.53892        28.89913         1.93311
C         34.37641        29.63240         2.10447
C         35.45354        31.72256         1.41777
C         34.28599        31.07659         1.81659
C         35.45116        33.16174         1.11286
C         34.12217        33.91082         1.07503
C         35.31863        35.77156        -0.19244
C         34.03224        35.25903         0.43267
C         35.36764        37.25738        -0.57033
C         34.07014        37.96660        -0.73311
C         35.25998        40.22525        -0.21352
C         34.10152        39.47078        -0.78564
C         35.14734        41.57550         0.05738
C         33.81601        42.25275        -0.07506
C         35.07286        44.53756         0.01040
C         33.78906        43.78371        -0.13780
C         35.35944        45.71737        -0.85060
C         37.99793        27.32894         1.11311
C         36.70995        26.83754         1.51620
C         38.03318        28.78311         1.19472
C         36.86390        29.54388         1.70691
C         37.92159        31.70683         0.74614
C         36.78769        31.09134         1.43755
C         37.81111        33.03251         0.25144
C         36.63071        33.74991         0.47189
C         37.82652        35.98053         0.18429
C         36.58834        35.22811         0.41745
C         37.76923        37.43537        -0.07867
C         36.60153        38.07504        -0.34899
C         37.73331        40.26764        -0.18235
C         36.54936        39.55048        -0.24304
C         37.73722        41.68354         0.24122
C         36.35439        42.34126         0.51139
C         37.69253        44.61322         0.76427
C         36.33467        43.85587         0.53142
C         37.67578        46.03608         0.01749
C         36.50508        46.19435        -0.74675
C         40.26173        24.47944         0.27772
C         39.28337        25.18198         0.59700
C         40.33037        27.26646         0.28287
C         39.10660        26.59563         0.71815
C         40.31290        28.71621         0.28945
C         39.18517        29.46123         0.75569
C         40.26291        31.57310        -0.07122
C         39.26519        30.99849         0.89874
C         40.25923        33.01365        -0.48924
C         38.97659        33.75449        -0.37111
C         40.27632        36.03578        -0.26220
C         38.97242        35.29333        -0.50549
C         40.30795        37.38873        -0.02784
C         39.03673        38.18236         0.28113
C         40.31402        40.31174        -0.36451
C         39.01919        39.50064        -0.49886
C         40.26271        41.80089        -0.24031
C         38.98383        42.52665         0.08515
C         40.28954        44.59254         0.67224
C         38.98582        43.85649         0.42209
C         40.44559        46.00057         1.17809
C         38.49690        47.03857         0.44345
C         40.13941        48.63686        -0.27548
C         38.96466        48.19140        -0.27501
C         42.70424        24.52990        -0.70867
C         41.28957        25.05967        -0.67625
C         42.76860        27.29236        -0.31684
C         41.42444        26.57753        -0.24778
C         42.66658        28.78787        -0.59189
C         41.41905        29.39034        -0.31868
C         42.96284        31.90102        -1.09751
C         41.14436        30.75405        -0.68865
C         42.86392        33.21317        -0.72860
C         41.54825        33.80510        -0.24604
C         42.81991        36.00753        -0.32263
C         41.51310        35.29117        -0.53668
C         42.77872        37.45576        -0.05347
C         41.57907        38.11641         0.00745
C         42.88660        40.31085         0.04440
C         41.54612        39.61656         0.25198
C         42.91279        41.79063        -0.31184
C         41.57545        42.54923        -0.18754
C         42.85799        44.71294         0.30403
C         41.55718        44.00364         0.11636
C         42.89575        46.08829         0.44062
C         41.70240        46.84564         0.96253
C         42.75300        48.69227        -0.31127
C         41.47609        48.32081        -0.11671
C         43.62911        25.20722        -1.17823
C         44.98018        27.47276        -1.68376
C         43.79619        26.65410        -1.27330
C         45.10155        28.88803        -1.15436
C         43.88596        29.52066        -0.79869
C         45.27156        31.64545        -0.42598
C         43.93838        30.98464        -0.39219
C         45.35385        33.14948        -0.43231
C         44.05818        33.89205        -0.26158
C         45.13864        35.94397         0.78656
C         44.04173        35.23486         0.00638
C         45.27618        37.38716         0.39239
C         44.11243        38.14727        -0.17853
C         45.33610        40.28227         0.50657
C         44.07107        39.62522         0.16518
C         45.20251        41.74159         0.95768
C         44.08230        42.53839         0.29600
C         45.32806        44.68587         0.29814
C         44.09020        43.93691         0.29075
C         45.32452        46.06222         0.03025
C         44.11539        46.81154         0.09490
C         43.92988        48.16243        -0.23043
C         47.34443        27.62056        -1.99411
C         46.30209        26.95706        -2.06759
C         47.60240        28.93439        -1.48141
C         46.37565        29.54244        -1.05725
C         47.69486        31.60679        -0.39692
C         46.46214        30.93946        -0.60986
C         47.72981        32.87848         0.36885
C         46.44868        33.65127         0.47749
C         47.77395        35.77240         0.94252
C         46.44858        35.10973         0.84426
C         47.70325        37.26123         1.10999
C         46.60266        38.06913         0.38862
C         47.73303        40.25506         1.21108
C         46.48098        39.56177         0.77347
C         47.82269        41.74936         1.04085
C         46.52911        42.51487         0.97246
C         47.91830        44.52896         0.12364
C         46.59716        43.96481         0.58841
C         47.69551        45.88091        -0.28607
C         46.65498        46.55820        -0.22736
C         50.04749        29.36701        -2.01406
C         48.82934        29.62152        -1.43587
C         50.12863        31.86035        -0.91629
C         48.98911        30.85849        -0.49942
C         50.27849        32.89857         0.20822
C         49.02110        33.57136         0.73558
C         50.21747        35.78893         1.36424
C         48.96470        35.06455         1.04975
C         50.25082        37.21930         1.28137
C         48.99469        37.98838         1.34259
C         50.31405        40.18140         0.90064
C         49.03844        39.50782         1.30763
C         50.35671        41.53043         0.45250
C         49.13751        42.38930         0.63829
C         50.36541        44.12997        -0.40064
C         49.06680        43.78663         0.07045
C         51.24147        29.83651        -1.89648
C         52.54047        31.57510        -0.52543
C         51.48353        31.03693        -1.25897
C         52.64045        32.38327         0.43875
C         51.43369        33.00981         0.94450
C         52.58678        35.89236         1.77893
C         51.41205        35.11370         1.75831
C         52.54660        37.12866         1.52011
C         51.45901        37.97094         1.27362
C         52.61270        40.08811         0.49408
C         51.49113        39.37554         0.94099
C         52.69081        41.26733         0.04781
C         51.58427        42.12929        -0.02090
C         51.42952        43.48650        -0.46824
O         48.36021        32.70037         1.71698
O         40.59898        44.91295         2.09926
O         48.10276        37.59559         2.45400
O         33.77471        40.03074        -2.13414
O         42.29314        35.70156        -1.69418
O         39.31914        46.77975         1.55350
O         34.72122        37.40376        -1.90091
O         34.97174        33.97913         2.26283
O         43.86059        27.25119        -2.57877
O         46.18473        34.03012         1.83781
O         33.46428        43.09020         1.08331
O         37.36665        35.76097         1.56707
O         51.44614        33.77271         2.09526
O         48.70430        42.35228         2.02870
O         37.13101        41.78024         1.59025
O         39.44350        33.20638        -1.67498
O         40.40311        41.10851        -1.57680
O         46.54041        43.54496         2.01168
O         48.34469        39.96701         2.50977
O         37.17159        30.51630         2.74938
O         41.89818        31.29433        -1.74747
O         41.46140        43.56792        -1.27125
O         32.29723        38.25666         0.86823
O         35.39483        44.56830         1.41807
O         41.68050        33.74076         1.20660
H         41.77375        32.79760         1.47414
O         44.76844        41.63646         2.34520
H         45.14185        42.41409         2.82373
O         44.38554        38.15260        -1.65817
H         43.92468        37.37513        -2.04891
O         47.07496        38.07967        -1.01305
H         46.27623        38.24874        -1.57754
O         45.84431        33.53112        -1.76656
H         45.18176        33.24268        -2.43019
O         31.46891        34.52605        -1.13951
H         30.63231        34.02263        -1.22777
O         39.73984        31.27635         2.24828
H         39.00664        31.03225         2.86539
O         31.78555        38.52492        -2.60719
H         32.60335        38.90212        -3.01544
O         49.30505        30.29824         0.78476
H         49.01727        30.94737         1.47631
O         43.37523        27.16288         1.00812
H         42.68270        27.31872         1.68464
O         43.21441        41.75197        -1.74569
H         42.35371        41.68737        -2.22066
O         35.31777        35.01111        -1.44328
H         34.87168        35.57296        -2.12378
O         44.61722        36.00709         2.15598
H         44.86310        35.15703         2.59333
O         38.94031        39.08344        -1.87866
H         39.21567        39.84674        -2.43558
O         40.76445        25.02251        -1.97487
H         40.71505        24.09448        -2.28186
O         32.06736        42.29427        -3.11292
H         31.78600        41.48159        -3.57885
O         38.98633        38.45118         1.69259
H         38.69522        37.63766         2.15810
O         38.66576        35.58500        -1.89727
H         39.12692        34.90827        -2.44720
O         49.69868        32.48262        -2.12290
H         50.36304        33.14412        -2.40563
O         31.69318        41.38100         0.56915
H         31.85002        42.15066         1.16758
O         41.30816        39.81907         1.67971
H         41.98141        39.32032         2.18976
O         37.77424        44.87441         2.15162
H         36.86798        45.07016         2.48182
O         42.04024        47.41650         2.18716
H         41.22427        47.58429         2.70442
O         43.45695        31.04658         1.01137
H         44.10688        30.56442         1.56774
