         651
 CSIRO Nanostructure Databank - Neutral Graphene Oxide Data Set
C          5.88415        31.78300         0.87784
C          5.87138        33.13685         0.78046
C          8.32649        27.47371         0.97495
C          8.28638        28.86394         1.23992
C          7.08428        29.61044         1.08906
C          8.31688        31.68126         1.38218
C          7.07819        31.00489         1.18043
C          8.36017        33.14451         1.43180
C          7.04123        33.96675         1.12042
C          8.44936        35.99483         0.79837
C          7.21067        35.33111         0.65852
C          8.57477        37.40656         0.65049
C         10.67346        23.13603         0.28391
C         10.29423        24.34428         0.93213
C          9.46166        25.37042         0.52100
C         10.70194        27.36040         1.58448
C          9.49466        26.70877         1.09442
C         10.70209        28.76689         1.73181
C          9.51588        29.53520         1.53839
C         10.77348        31.69001         1.48506
C          9.52484        30.96885         1.52929
C         10.81131        33.01955         1.09537
C          9.61891        33.80904         1.10902
C         10.92856        35.86495         0.88842
C          9.65146        35.20071         0.94803
C         10.98535        37.27130         1.06588
C          9.80009        38.11406         0.85233
C         10.91174        40.55427         0.91307
C          9.81394        39.51103         0.67859
C         10.84873        41.75960         0.01094
C         13.11772        18.93206        -0.28377
C         13.10141        20.27988         0.06361
C         11.94074        21.10118         0.07452
C         13.05200        22.98948         1.39819
C         11.87181        22.43287         0.54468
C         13.19580        24.51997         1.48605
C         12.05298        25.26268         1.82904
C         13.21904        27.36684         1.79027
C         11.97114        26.66675         1.74849
C         13.24586        28.77648         1.96498
C         11.96218        29.46419         2.07549
C         13.31173        31.62162         1.60506
C         12.01912        31.00695         1.86915
C         13.36163        32.95848         1.08641
C         12.09052        33.62119         0.58194
C         13.34849        35.75856         0.55355
C         12.12753        35.11399         0.75940
C         13.41599        37.15185         0.77432
C         12.27588        37.78812         1.26569
C         13.30683        40.17322         0.00489
C         12.28573        39.95767         0.87940
C         13.20599        41.43182        -0.77645
C         11.98946        42.27207        -0.59103
C         13.31370        44.29509        -1.22151
C         12.07017        43.61241        -1.05587
C         13.31695        45.68917        -1.36160
C         15.66102        14.64019        -1.03057
C         15.61582        16.13895        -1.19928
C         14.38492        16.82772        -0.64546
C         15.60409        18.96577        -0.69836
C         14.33945        18.19238        -0.51555
C         15.61917        20.42211        -0.31287
C         14.38942        20.94696         0.36908
C         15.59420        23.14876         0.61220
C         14.37781        22.32693         0.94203
C         15.64904        24.59413         0.96633
C         14.40385        25.24017         1.42092
C         15.69762        27.34246         1.77599
C         14.43680        26.63653         1.67647
C         15.69272        28.74204         2.08833
C         14.47539        29.47910         2.09497
C         15.75656        31.59313         1.76041
C         14.51914        30.92857         1.91792
C         15.86388        32.82936         0.91229
C         14.56389        33.59221         0.88261
C         15.79580        35.76848         0.88433
C         14.61403        34.96731         0.26910
C         15.86704        37.15524         0.27453
C         14.58672        37.93573         0.31213
C         15.76334        39.96917        -0.36557
C         14.57832        39.41709         0.05977
C         15.78153        41.30810        -1.01999
C         14.50382        42.09189        -1.14861
C         15.80970        44.21828        -1.21304
C         14.57991        43.56709        -1.19041
C         15.82516        45.67984        -0.97131
C         14.52209        46.45052        -1.07018
C         15.77025        48.60263        -1.30076
C         14.57899        47.92120        -1.17540
C         15.82980        50.02183        -1.28498
C         18.14541        10.36604        -1.20083
C         18.10801        11.78211        -0.97169
C         16.89798        12.50593        -1.05045
C         18.10562        14.62902        -0.49225
C         16.83069        13.92964        -0.90838
C         18.12167        16.11493        -0.70568
C         16.89852        16.84610        -0.79610
C         18.17052        19.01402        -0.80029
C         16.88061        18.23008        -0.71343
C         18.13762        20.39621        -0.17239
C         16.89827        21.09636         0.04149
C         18.09999        23.10068         0.88162
C         16.86910        22.40417         0.48014
C         18.12978        24.57649         1.06343
C         16.94848        25.28031         1.18813
C         18.17387        27.44572         1.56243
C         16.91636        26.67092         1.54937
C         18.26466        28.68548         2.43316
C         16.93438        29.43102         2.43738
C         18.27820        31.66852         2.07971
C         16.98002        31.00871         2.25160
C         18.31760        33.00556         1.60189
C         17.10643        33.66525         1.19820
C         18.33238        35.78648         0.90772
C         17.11911        35.03798         0.92564
C         18.32168        37.21436         0.58070
C         17.14254        37.87561         0.29856
C         18.35902        39.88922        -0.48444
C         17.08127        39.37683         0.14602
C         18.37956        41.29477        -1.01017
C         17.07852        42.03015        -1.23374
C         18.30238        44.18832        -1.23506
C         17.08764        43.51995        -1.23547
C         18.30435        45.65202        -1.67373
C         17.14037        46.45100        -1.05463
C         18.30997        48.60839        -1.52561
C         17.01303        47.84476        -1.73861
C         18.30703        50.00434        -1.54544
C         17.03756        50.72500        -1.45112
C         18.24700        52.87517        -1.49140
C         17.04492        52.13468        -1.45352
C         18.22901        54.28330        -1.51521
C         20.70095         6.27761        -2.19342
C         20.62046         7.57687        -1.71007
C         19.40227         8.29090        -1.56148
C         20.54311        10.27418        -0.47929
C         19.33552         9.63797        -1.14342
C         20.58362        11.79051        -0.60939
C         19.35913        12.47280        -0.83726
C         20.64949        14.68619        -1.01226
C         19.35147        13.92974        -1.00843
C         20.58716        16.11955        -0.65186
C         19.36970        16.78632        -0.58248
C         20.63454        18.99770        -0.43140
C         19.34255        18.24216        -0.18654
C         20.60351        20.35712        -0.25965
C         19.35092        21.02556         0.03607
C         20.71299        23.08094         0.75204
C         19.39637        22.34692         0.67084
C         20.70548        24.50344         1.18026
C         19.44998        25.29331         0.82556
C         20.72284        27.43477         1.64990
C         19.48000        26.76080         1.25301
C         20.70805        28.85591         1.83180
C         19.48750        29.52759         2.10006
C         20.78426        31.69083         2.22160
C         19.51407        30.95698         2.57216
C         20.73567        33.18512         2.36292
C         19.52756        33.77793         1.65435
C         20.84687        35.83369         1.15199
C         19.54184        35.12044         1.26682
C         20.86734        37.26662         0.72557
C         19.57719        37.96519         0.49982
C         20.89297        39.93488        -0.20249
C         19.60054        39.24881         0.02680
C         20.88983        41.38028        -0.66930
C         19.60972        42.09624        -0.90609
C         20.84136        44.20902        -1.10832
C         19.55645        43.46190        -1.06968
C         20.81906        45.70182        -1.30254
C         19.55661        46.44537        -1.38381
C         20.76887        48.60245        -1.25964
C         19.54646        47.85620        -1.35537
C         20.79333        49.97276        -1.90256
C         19.53282        50.76522        -1.60383
C         20.72384        52.95752        -1.46907
C         19.51507        52.16076        -1.54520
C         20.67786        54.33344        -1.34840
C         19.42352        55.04829        -1.47785
C         20.64306        57.21863        -1.60188
C         19.43392        56.44680        -1.60159
C         20.63194        58.60099        -1.85288
C         23.20627         3.89759        -3.64863
C         21.99481         4.45635        -3.25125
C         23.20096         6.30361        -2.20294
C         21.96636         5.67354        -2.53392
C         23.17112         7.51698        -1.30298
C         21.89926         8.31353        -1.52771
C         23.11050        10.28057        -0.44446
C         21.85274         9.69382        -1.00027
C         23.03971        11.74488        -0.13342
C         21.78418        12.47566        -0.42874
C         22.94727        14.70561         0.06080
C         21.97122        13.92223        -0.87302
C         23.14333        16.11407        -0.49095
C         21.86041        16.86423        -0.71831
C         23.10325        19.00985        -0.67004
C         21.89361        18.32684        -0.61227
C         23.07783        20.48896        -1.04546
C         21.80400        21.17678        -0.56234
C         23.10048        23.46198        -0.33368
C         21.83362        22.60944        -0.12875
C         23.21024        24.67717         0.59082
C         22.01341        25.23491         1.23297
C         23.25358        27.44049         1.47551
C         22.00069        26.69749         1.64821
C         23.22253        28.84838         1.92550
C         21.95329        29.58303         1.88206
C         23.26825        31.71399         2.08753
C         21.98655        30.99612         2.07061
C         23.24465        33.14632         2.14139
C         22.05230        33.86909         2.07056
C         23.24474        36.03282         1.83914
C         22.07268        35.27119         1.78001
C         23.29352        37.44036         1.44453
C         22.08290        38.08700         0.94930
C         23.23370        40.25338         0.68358
C         22.07995        39.40953         0.52790
C         23.22658        41.58047         0.27945
C         22.06241        42.19774        -0.30215
C         23.11487        44.39023         0.04121
C         22.02800        43.56528        -0.47361
C         22.79417        45.80155         0.11586
C         21.92713        46.46094        -0.69171
C         23.35840        48.69580        -0.96006
C         22.02437        47.89894        -1.06721
C         23.33201        50.13856        -1.20297
C         22.09516        50.76646        -1.70283
C         23.26080        52.98582        -1.13826
C         22.03677        52.27873        -1.54827
C         23.20918        54.43683        -0.88836
C         21.88909        55.12979        -1.02345
C         23.08522        57.31260        -1.25104
C         21.89637        56.58437        -1.30415
C         23.07084        58.70566        -1.54549
C         21.83109        59.35257        -1.84584
C         23.01844        61.46840        -2.11322
C         21.83294        60.75261        -2.11717
C         24.41076         4.53615        -3.34171
C         25.74278         6.36421        -2.24987
C         24.41501         5.73711        -2.60900
C         25.65574         7.80192        -1.78467
C         24.42624         8.37619        -1.35585
C         25.59708        10.48118        -0.80767
C         24.40729         9.68543        -0.85873
C         25.60656        11.84134        -0.34408
C         24.32945        12.49050         0.06935
C         25.56400        14.76231         0.27123
C         24.27491        13.97737         0.26881
C         25.56567        16.21494         0.01366
C         24.36652        16.90545        -0.24013
C         25.59850        19.01428        -0.47908
C         24.35710        18.30874        -0.49289
C         25.64460        20.46919        -0.93232
C         24.35555        21.24997        -0.67942
C         25.62187        23.37232        -0.34419
C         24.35755        22.58142        -0.37752
C         25.61460        24.82477         0.06469
C         24.36205        25.43197         0.58392
C         25.63747        27.66401         0.79999
C         24.39643        26.81179         1.04775
C         25.80245        28.77044         1.88702
C         24.51878        29.56981         2.12317
C         25.75191        31.76730         1.95929
C         24.51010        31.05258         2.05219
C         25.78813        33.17877         2.13189
C         24.50506        33.86768         2.39343
C         25.77132        36.14451         2.37949
C         24.45806        35.40422         2.39606
C         25.72220        37.61657         2.07286
C         24.45525        38.19120         1.55545
C         25.70575        40.33970         1.10575
C         24.39889        39.70621         1.48368
C         25.73626        41.72533         0.67213
C         24.47514        42.40114         0.26761
C         25.62092        44.66782         0.88131
C         24.37146        43.88653         0.34238
C         25.78092        46.11534         0.38703
C         24.66469        46.93477         0.34713
C         25.80016        48.88928        -0.41945
C         24.58911        48.16631        -0.33781
C         25.75930        50.25817        -0.76980
C         24.51741        50.88875        -1.09284
C         25.72244        53.12258        -1.25427
C         24.46850        52.33834        -1.15564
C         25.67060        54.58868        -1.10259
C         24.46406        55.21505        -0.98191
C         25.62649        57.42487        -1.12100
C         24.36609        56.69520        -0.70826
C         25.55185        58.77904        -1.40821
C         24.29476        59.45647        -1.57283
C         24.24508        60.82987        -1.85790
C         26.81987         8.55359        -1.72946
C         28.02241        10.64959        -1.22624
C         26.82315         9.89346        -1.25243
C         28.02930        11.97736        -0.79927
C         26.80188        12.57449        -0.35800
C         28.08416        14.78999        -0.23382
C         26.85967        14.00071         0.03275
C         28.05448        16.16069        -0.04507
C         26.80391        16.90168        -0.01437
C         28.10624        18.99167        -0.48114
C         26.78599        18.30919        -0.23566
C         28.02897        20.46710        -0.22827
C         26.87745        21.18595        -0.45397
C         28.06542        23.30082        -0.03799
C         26.89374        22.62281        -0.26617
C         28.13170        24.70417         0.39675
C         26.88225        25.50135         0.45798
C         28.19699        27.56032         0.80922
C         26.90275        26.82902         0.73804
C         28.24238        28.90666         1.45480
C         26.98359        29.65957         1.57576
C         28.21891        31.79678         1.53286
C         26.99021        31.04466         1.72211
C         28.17551        33.20528         1.55149
C         26.99386        33.89687         1.94233
C         28.28682        36.10934         1.75338
C         27.05894        35.37070         2.14973
C         28.37656        37.59737         2.06371
C         27.02819        38.33962         1.86960
C         28.20684        40.38380         0.97626
C         26.95641        39.53952         0.93060
C         28.20793        41.74784         0.87743
C         26.97511        42.52969         0.81461
C         28.19208        44.63763         0.38811
C         26.93262        43.89653         0.69285
C         28.25393        46.11781         0.31814
C         27.02263        46.79381         0.15066
C         28.26451        48.89862        -0.12476
C         27.03091        48.20621        -0.09216
C         28.26536        50.36861        -0.19603
C         26.96978        51.05530        -0.53120
C         28.27373        53.22651        -0.79662
C         27.03840        52.44212        -1.05432
C         28.17309        54.63152        -0.90145
C         26.93721        55.32278        -1.04255
C         26.86576        56.72715        -1.10899
C         29.26101        12.74589        -0.80173
C         30.65344        14.82341        -0.62668
C         29.31617        14.08987        -0.52622
C         30.63863        16.25852        -0.12826
C         29.33088        16.84741         0.35268
C         30.43712        19.01397         0.51455
C         29.31029        18.32235         0.14132
C         30.24265        20.41234         0.77971
C         29.19793        21.13042         0.26740
C         30.66412        23.23733        -0.18801
C         29.33814        22.56091        -0.03517
C         30.67181        24.76404        -0.31212
C         29.46793        25.37705         0.40463
C         30.79827        27.42087         1.07174
C         29.48406        26.86531         0.53305
C         30.78264        28.92854         0.98423
C         29.54524        29.63762         1.39435
C         30.65017        31.78579         1.02537
C         29.48549        31.11428         1.30623
C         30.67416        33.25310         0.91341
C         29.37312        33.97995         1.15029
C         30.71088        36.10676         1.27661
C         29.43324        35.43343         1.41628
C         30.74891        37.53682         1.20329
C         29.53589        38.22859         1.31806
C         30.76218        40.27950         0.49394
C         29.45148        39.58997         0.82208
C         30.78200        41.76278         0.62735
C         29.50045        42.47675         0.85934
C         30.78353        44.63538         0.61566
C         29.48657        43.90339         0.43444
C         30.76651        46.14638         0.49033
C         29.47106        46.81449         0.23281
C         30.74805        48.93910        -0.15865
C         29.48866        48.21459        -0.00959
C         30.71900        50.35763        -0.38028
C         29.53509        51.10008        -0.41873
C         29.47620        52.51726        -0.58849
C         31.77056        17.01026        -0.02696
C         32.96939        19.13452         0.38429
C         31.78565        18.42325         0.41191
C         33.34641        20.56826         0.86242
C         32.17539        21.49834         0.82990
C         33.16052        23.24914        -0.62869
C         31.99212        22.59996         0.07715
C         33.21115        24.72430        -0.22778
C         31.99569        25.41545         0.05679
C         33.21621        27.51621         0.31789
C         32.00610        26.76598         0.41889
C         33.17786        28.91377         0.50241
C         31.94192        29.61268         0.75769
C         33.13905        31.77155         1.14735
C         31.91346        31.11016         0.55094
C         33.15850        33.24480         1.25527
C         31.96052        33.96200         1.14135
C         33.17156        36.10156         1.40434
C         31.92979        35.39217         1.22905
C         33.27646        37.51518         1.17415
C         32.03021        38.21551         0.97494
C         33.25339        40.34687         0.55513
C         32.03477        39.59205         0.71415
C         33.24393        41.72647         0.26950
C         31.95675        42.45999        -0.01747
C         33.22543        44.63508         0.12616
C         32.02323        43.92811         0.31137
C         33.20068        46.07896         0.04587
C         32.02389        46.82278         0.10834
C         31.95720        48.22841        -0.14903
C         34.51507        21.26383         0.18286
C         35.69512        23.24224        -0.81307
C         34.45539        22.50767        -0.34283
C         35.69615        24.71012        -0.39184
C         34.44132        25.40085        -0.18009
C         35.67436        27.52157         0.00232
C         34.45441        26.82705         0.02625
C         35.69854        28.98460         0.05177
C         34.38602        29.71522         0.31412
C         35.75237        31.77330         1.16803
C         34.43715        31.03973         1.01982
C         35.74390        33.24065         1.55378
C         34.38620        33.91228         1.56989
C         36.09877        36.33775         1.37777
C         34.26790        35.28182         1.79785
C         35.82131        37.60761         0.83058
C         34.52637        38.24226         0.92965
C         35.68687        40.32057         0.15602
C         34.49116        39.62058         0.57636
C         35.65956        41.72476        -0.03489
C         34.45823        42.46137         0.06241
C         34.42551        43.88202        -0.06713
C         36.88279        25.39799        -0.28911
C         38.12234        27.53982         0.05928
C         36.92515        26.82328        -0.06033
C         38.15371        28.96564         0.25576
C         36.94760        29.68944         0.30478
C         38.24211        31.80563         0.67064
C         36.91481        31.19796         0.34123
C         38.29984        33.25957         0.90941
C         37.06730        34.03237         1.32575
C         38.17459        36.06899         0.20017
C         37.09764        35.47721         0.93837
C         38.09821        37.43314        -0.11545
C         36.93308        38.21519         0.15037
C         36.86395        39.59322        -0.13166
C         39.38991        29.68152         0.28566
C         40.66716        31.83182         0.27620
C         39.42268        31.08884         0.43828
C         40.65703        33.18127         0.09850
C         39.45165        33.96530         0.28280
C         39.36729        35.29021        -0.05847
O         29.06184        29.04723         2.67917
O         23.52616        46.53438         1.04841
O         30.42735        42.21521         1.96805
O         16.40099        41.39572        -2.36250
O         13.64595        41.44477        -2.16117
O         14.69546        21.17680         1.79494
O         22.28790        51.63970        -2.85939
O         15.49278        20.05278        -1.71833
O         21.32945        22.25243        -1.46700
O         35.31890        35.91187         2.45296
O         21.10093        44.80276        -2.44839
O         22.41990        54.79192         0.33357
O         22.95679        47.99520        -2.23304
O         29.95628        39.73265        -0.58331
O         26.39474        14.34218         1.39191
O         19.92799        14.39896        -2.27114
O         25.33813        41.88496        -0.83976
O         25.87658        20.44121        -2.45334
O         22.95418        10.70945         0.94044
O         29.85380        33.71107        -0.22359
O         31.12183        21.05589         1.64824
O         18.45006        40.12360        -1.90379
O         26.31137        38.49710         3.12046
O         21.10385        36.18997        -0.26587
O         15.11327        46.01041         0.26584
O         18.75941        27.61168         0.23566
O         28.85934        27.61332        -0.53815
O         11.89527        30.39002         3.19650
O         34.90835        29.66750        -1.05094
O         30.04075        22.66348        -1.39889
O         20.88247        23.43261         2.15978
O         21.98211         9.46540        -2.43870
O         28.85104        44.08838        -0.85767
O         15.10271        37.30991        -0.96273
O         24.33977        34.65283         3.62926
O         21.17442        40.28255        -1.59755
O         23.82519        29.04205         3.30828
O         24.26496        13.08785         1.42095
O         22.19269        25.62880         2.64228
O         12.45785        39.02071         1.90359
O         33.68405        31.02286         2.27128
O         29.00166        24.75391         1.62551
O         35.98954        32.17873         2.53073
O         15.43411        24.14097        -0.45478
O         38.07375        33.67677         2.32061
O         10.90893        24.55877         2.18296
O         27.43209        50.98198         0.86461
O         22.67197        16.33658        -1.84585
O         25.62628        24.45085        -1.35640
O          7.56081        33.75250         2.47526
O         18.74163        22.34944         1.97979
O         16.82013        30.32286         3.55176
O         26.61578        35.80537         3.50596
O         30.82432        45.49002         1.80545
O         26.52713        52.63197        -2.40674
O         18.42585        19.19075        -2.21768
H         17.64431        19.64755        -2.60016
O         16.06761        32.35329        -0.47596
H         15.80354        33.09838        -1.06950
O         26.15226        28.06872         3.09951
H         25.39255        28.16662         3.72336
O         23.05831         7.02567         0.06982
H         23.79249         6.39760         0.23210
O         26.88828        38.94574        -0.41015
H         26.82712        39.67923        -1.06160
O         31.10217        14.79705        -1.99349
H         30.52124        15.38374        -2.52031
O         22.61177        13.80249        -2.16365
H         21.90685        13.90109        -2.84413
O         19.56311        25.31200        -0.63782
H         19.03176        26.08409        -0.94973
O         16.80066        47.72739        -3.16334
H         17.49921        47.13716        -3.53891
O         20.48502        33.47904         3.78617
H         19.95801        32.72409         4.15537
O         17.56385        46.69789         0.30738
H         16.74270        46.73405         0.85516
O         20.73077        49.65726        -3.32998
H         21.56418        49.18158        -3.54926
O         24.27785        56.83234         0.74775
H         23.54478        56.23327         1.03340
O         28.71302        37.68745         3.47233
H         27.94640        37.30504         3.96477
O         20.41725         9.91695         0.91803
H         21.25014        10.20393         1.36910
O         10.68809        41.05187         2.27504
H         11.02547        40.35920         2.88537
O         12.08437        33.36517        -0.86380
H         12.91861        33.74793        -1.22669
O         31.99778        31.36002        -0.88082
H         31.13939        31.12787        -1.29333
O         19.10491        18.24749         1.24971
H         19.78724        17.69226         1.68190
O         35.74804        23.19164        -2.24908
H         34.82528        23.30744        -2.57900
O         31.73212        42.36475        -1.46213
H         32.52819        42.71310        -1.91617
O         18.19343        45.55553        -3.12676
H         19.02917        45.14326        -3.44565
O         14.78342        34.75331        -1.15695
H         14.85207        35.65248        -1.57173
O         19.46855        30.94191         4.08361
H         20.28002        30.47656         4.38585
O         30.52349        25.08977        -1.71951
H         30.01774        24.33964        -2.12524
O         25.46200        28.34457        -0.46407
H         25.51412        27.68246        -1.18592
O         25.33788        19.22558        -3.00901
H         24.37547        19.45726        -3.13690
O         29.33863        16.69524         1.82833
H         29.03126        15.78747         2.04089
O         18.20822        14.44397         0.96285
H         17.39890        14.81454         1.37456
O         26.37475         5.57814        -1.21501
H         25.81809         5.62114        -0.41087
O         30.88874        27.04124         2.47189
H         30.25020        27.61186         2.96850
O         15.51802        16.32472        -2.65935
H         15.44926        17.28830        -2.83191
O         28.34262        18.84135        -1.92832
H         27.60387        19.30977        -2.38929
O         24.12528        40.14739         2.87438
H         24.84751        39.75871         3.42650
O         18.45217        28.21523         3.79597
H         18.34321        29.00524         4.37650
O         17.17312        39.92517         1.51716
H         16.50757        39.46991         2.07688
O         23.00456        20.48895        -2.50379
H         22.53309        21.31072        -2.77218
O         36.64895        31.67321        -1.03425
H         35.99388        31.03832        -1.43001
O         15.45408        36.00148         2.28502
H         15.48239        35.14187         2.75728
O         32.95901        23.21846        -2.06947
H         32.13892        23.73061        -2.26203
O         12.79349        22.56551         2.74974
H         13.24452        21.69679         2.87293
O         23.00266        24.08788        -1.63698
H         22.44524        23.51040        -2.20837
O         25.41921        44.73348         2.32175
H         24.66176        45.34020         2.48050
O         33.75135        20.38373         2.24577
H         32.93171        20.23173         2.76514
O         22.31634        14.85434         1.34670
H         22.66480        14.13217         1.92306
H          4.97153        31.22038         0.62880
H          4.96517        33.64876         0.42201
H          7.40592        26.98104         0.62785
H          6.15116        29.07493         0.85854
H          6.35371        35.85784         0.21213
H          7.66572        37.98946         0.43571
H         10.00192        22.72547        -0.48754
H          8.77217        25.20598        -0.32114
H          8.83761        39.95877         0.42619
H          9.94674        42.38815         0.07058
H         12.16283        18.40364        -0.42606
H         11.01445        20.66348        -0.33117
H         11.15546        44.22483        -1.03434
H         12.37604        46.22431        -1.55666
H         14.73095        14.09496        -1.25991
H         13.45962        16.24070        -0.53796
H         13.63815        48.48109        -1.05489
H         14.90482        50.58996        -1.10037
H         17.22371         9.86702        -1.53949
H         15.96976        11.95869        -1.27554
H         16.08682        52.67406        -1.40641
H         17.26076        54.80430        -1.55843
H         19.77979         5.71437        -2.40664
H         18.46870         7.79321        -1.86986
H         18.47976        56.97455        -1.74940
H         19.67917        59.10676        -2.06891
H         23.21645         2.95397        -4.21140
H         21.04737         3.96038        -3.50617
H         23.00647        62.54674        -2.32504
H         20.87998        61.25765        -2.33067
H         25.36626         4.09534        -3.65865
H         26.42629         6.30689        -3.13557
H         26.47731        59.34539        -1.59796
H         25.17814        61.41086        -1.88378
H         27.76927         8.10586        -2.05824
H         28.95700        10.18220        -1.56950
H         29.08894        55.23422        -0.79807
H         27.79709        57.30691        -1.20723
H         30.18554        12.21615        -1.07630
H         31.41320        14.23894        -0.04179
H         31.67956        50.87593        -0.52509
H         30.42102        53.08258        -0.56101
H         32.73535        16.56746        -0.32330
H         33.86337        18.53685         0.13108
H         34.14463        46.59556        -0.18553
H         32.89579        48.77156        -0.33813
H         35.50334        20.79282         0.31631
H         36.61900        22.74176        -0.42306
H         36.59568        42.24542        -0.28626
H         35.37063        44.41830        -0.23717
H         37.83555        24.86249        -0.41917
H         39.07986        27.00310        -0.01058
H         38.95986        37.92199        -0.59293
H         37.73018        40.11053        -0.56921
H         40.33171        29.13139         0.14536
H         41.60046        31.26329         0.15361
H         41.58356        33.71059        -0.16981
H         40.23279        35.79519        -0.51358
