         477
 CSIRO Nanostructure Databank - Neutral Graphene Oxide Data Set
C         40.99331        51.42993         7.24299
C         40.14255        52.26898         7.94370
C         40.71841        54.09605         6.47173
C         40.00674        53.61300         7.55763
C         42.89693        49.67298         5.84309
C         42.62508        51.02217         5.39008
C         41.74107        51.89967         6.13478
C         42.33415        53.76435         4.59272
C         41.59454        53.26070         5.73593
C         42.22097        55.10373         4.15017
C         44.25991        49.15175         3.85885
C         43.70557        48.80934         5.17377
C         44.10241        50.60198         3.43499
C         43.30538        51.51720         4.27244
C         43.92379        53.37734         2.73791
C         43.19507        52.89121         3.87141
C         43.78732        54.71937         2.31484
C         42.91954        55.56330         3.04623
C         46.26339        46.15799         2.60026
C         45.27323        46.93415         3.23614
C         46.45005        48.97083         2.57102
C         45.33622        48.31591         3.25026
C         46.27087        50.47044         2.10282
C         45.04942        51.20560         2.47650
C         45.66866        53.03388         0.94675
C         44.87837        52.50870         2.07810
C         45.59425        54.45908         0.60228
C         44.55039        55.23329         1.16769
C         44.87769        56.86774        -0.58966
C         44.23989        56.47731         0.58416
C         48.15703        44.53139         1.00059
C         48.30246        45.92184         1.19907
C         47.34336        46.73235         1.89929
C         48.39922        48.83578         1.06190
C         47.43681        48.17459         1.83695
C         48.24318        50.20383         0.64288
C         47.11936        50.93789         1.02170
C         47.88548        52.93670        -0.35189
C         46.79876        52.21838         0.35666
C         47.68940        54.27854        -0.80857
C         46.41317        54.94002        -0.45855
C         47.63762        57.04358        -2.30818
C         45.92677        56.09752        -1.10269
C         47.64891        58.41481        -2.69597
C         50.24534        44.39221        -0.29894
C         49.12156        43.78456         0.34330
C         50.41038        45.80271        -0.22201
C         49.51997        46.54864         0.67546
C         50.48868        48.70353        -0.37694
C         49.56940        48.08811         0.58825
C         50.37470        50.10792        -0.60026
C         49.25175        50.83190        -0.19254
C         50.19103        52.91914        -1.14717
C         49.09208        52.23200        -0.55720
C         50.08758        54.31834        -1.41679
C         48.80291        54.99513        -1.37332
C         50.06737        57.03991        -2.33403
C         48.77073        56.35432        -1.88483
C         50.03779        58.55941        -2.30196
C         48.79510        59.17677        -2.59439
C         52.59036        41.53805        -0.82178
C         51.38467        42.18866        -0.88535
C         52.17124        44.36358        -1.74927
C         51.22372        43.62706        -1.01540
C         52.40364        45.73863        -1.63525
C         51.46743        46.49161        -0.88547
C         52.53723        48.56373        -1.78481
C         51.49548        47.93702        -0.99368
C         52.31364        49.99891        -2.24000
C         51.61857        50.78504        -1.10665
C         52.51112        52.92114        -1.90135
C         51.40467        52.23473        -1.43420
C         52.50478        54.34163        -1.90447
C         51.29860        55.01745        -1.67256
C         52.54877        57.18933        -2.00818
C         51.27346        56.51451        -1.56922
C         52.52107        58.58221        -2.18476
C         51.24317        59.27567        -2.22165
C         52.44358        61.40619        -2.35285
C         51.27323        60.71260        -2.24646
C         54.97057        40.71934         0.87977
C         55.00549        41.74370        -0.08026
C         53.90063        42.17288        -0.89356
C         55.04722        44.32312        -1.52874
C         54.03693        43.33590        -1.68140
C         54.93967        45.69940        -1.85929
C         53.62723        46.34995        -2.30416
C         54.90465        48.54773        -2.51004
C         53.66880        47.86374        -2.16010
C         54.83392        49.92122        -3.15193
C         53.58941        50.72896        -2.72982
C         54.97920        52.89817        -2.40949
C         53.67767        52.19816        -2.46718
C         54.97398        54.31951        -2.23965
C         53.75673        55.04199        -2.08968
C         55.00478        57.16466        -2.24528
C         53.76170        56.46079        -2.11488
C         54.98138        58.60178        -2.36304
C         53.74423        59.30066        -2.37250
C         54.89040        61.45949        -2.73601
C         53.71557        60.74349        -2.50298
C         54.91999        62.89189        -2.89268
C         57.38472        40.92285         1.45284
C         56.13121        40.27081         1.52911
C         57.38467        42.17487         0.72590
C         56.29706        42.42516        -0.25393
C         57.36609        44.73600        -0.73201
C         56.29554        43.78734        -0.98688
C         57.33019        45.98960        -1.36801
C         56.11552        46.50134        -1.90400
C         57.40012        48.48202        -2.92459
C         56.09905        47.86459        -2.42200
C         57.44932        50.01134        -2.80706
C         56.18764        50.79112        -3.16900
C         57.40951        52.90038        -2.47166
C         56.16727        52.18393        -2.52634
C         57.43129        54.29360        -2.43060
C         56.21316        55.03183        -2.31356
C         57.50236        57.19925        -2.00635
C         56.21721        56.45191        -2.26646
C         57.44622        58.63889        -2.46286
C         56.21049        59.29712        -2.55004
C         57.42337        61.47783        -2.62952
C         56.17603        60.72786        -3.02180
C         57.31484        62.93736        -2.34198
C         56.07090        63.60514        -2.77580
C         59.73037        38.04106         2.23122
C         58.57991        38.88121         2.24588
C         59.94763        40.77387         1.62997
C         58.61910        40.22792         1.87784
C         60.19477        42.11709         1.50483
C         58.32974        43.18780         0.90566
C         59.57725        45.22915         0.13067
C         58.41549        44.38981         0.14393
C         59.76301        46.19406        -0.84703
C         58.56670        46.72939        -1.48267
C         59.90730        48.50340        -2.47029
C         58.60884        47.87948        -2.23570
C         59.94344        49.98723        -2.78559
C         58.63484        50.68790        -2.72673
C         59.95329        52.90830        -2.68387
C         58.70098        52.13986        -2.29399
C         59.97251        54.27432        -2.66616
C         58.67864        55.03662        -2.86263
C         59.93961        57.16720        -2.57126
C         58.75252        56.48300        -2.45281
C         59.92162        58.64389        -2.50939
C         58.66407        59.35102        -2.60056
C         59.89021        61.61598        -2.80490
C         58.62079        60.80056        -2.63537
C         59.80737        62.88154        -1.97951
C         58.54520        63.68261        -1.90858
C         59.66219        66.00358        -1.65229
C         58.64685        65.17720        -2.03364
C         62.12899        36.29344         2.18369
C         62.09157        37.56906         1.56341
C         60.97128        38.46458         1.80459
C         62.00262        40.22126         0.27645
C         61.22434        39.92573         1.58923
C         62.28541        41.71003         0.19429
C         61.30970        42.63749         0.73954
C         62.22573        44.40853        -0.75236
C         61.40478        43.97527         0.42721
C         62.31178        45.91028        -1.02448
C         61.08000        46.68587        -1.24557
C         62.38990        48.51466        -2.35654
C         61.12543        47.86823        -1.95912
C         62.41584        50.00203        -2.47937
C         61.23091        50.70571        -2.60440
C         62.48268        52.91414        -2.66279
C         61.22087        52.15953        -3.02447
C         62.48029        54.28406        -2.60634
C         61.22400        55.03607        -2.69970
C         62.48294        57.19431        -2.63335
C         61.20348        56.42936        -2.71555
C         62.41975        58.66821        -2.37679
C         61.10591        59.35669        -2.42702
C         62.38689        61.49407        -1.86514
C         61.16846        60.82064        -2.51282
C         62.22697        62.85559        -1.33981
C         60.87874        63.33301        -1.28354
C         62.15826        65.98381        -0.94555
C         60.85670        65.53322        -0.96873
C         62.48983        67.37638        -1.13614
C         64.16605        35.67987         1.00954
C         63.16535        35.39928         1.96994
C         64.05864        36.92658         0.33445
C         63.13724        37.93429         0.67024
C         64.60279        40.04734         0.38001
C         63.25930        39.32216        -0.01126
C         64.68686        41.47661        -0.19006
C         63.46357        42.23719        -0.31566
C         64.72185        44.24192        -1.00012
C         63.54017        43.65392        -0.66412
C         64.78342        45.71370        -1.11595
C         63.52480        46.45552        -1.36026
C         64.92557        48.52458        -1.95221
C         63.65009        47.77331        -2.02699
C         64.90423        49.95944        -2.16644
C         63.71037        50.65717        -2.42625
C         65.04294        52.85497        -2.36423
C         63.74887        52.12388        -2.66220
C         64.96749        54.30037        -2.06008
C         63.79935        55.04613        -2.66143
C         64.80185        57.12827        -1.66813
C         63.71725        56.47747        -2.19784
C         64.85307        58.65741        -1.70402
C         63.46907        59.22634        -1.41724
C         64.49772        61.38096        -0.60247
C         63.49350        60.72597        -1.31267
C         64.43161        62.80294        -0.33117
C         63.27386        63.54792        -0.72938
C         64.40816        65.65300         0.15203
C         63.39223        65.07199        -0.80436
C         64.49970        67.05717         0.25040
C         63.61057        67.88583        -0.54831
C         66.94024        33.04843         1.45758
C         65.68711        33.71272         1.56738
C         67.18767        35.73316         0.25143
C         65.29948        34.79097         0.78580
C         67.14307        37.17183         0.29470
C         66.03499        37.86691        -0.10170
C         67.10739        40.06478         0.41049
C         65.90434        39.35691        -0.17970
C         67.17524        41.51580         0.01956
C         65.89125        42.10395        -0.41459
C         67.30314        44.12222        -1.29956
C         65.96569        43.44351        -1.04387
C         67.32864        45.59573        -1.60403
C         66.08438        46.39422        -1.36035
C         67.37179        48.50515        -1.60967
C         66.09967        47.83181        -1.73272
C         67.32841        49.95387        -1.56396
C         66.15158        50.65949        -1.89630
C         67.23723        52.75205        -1.20417
C         66.17851        52.08543        -1.82648
C         67.32953        54.25600        -1.22014
C         65.99277        54.93996        -1.42469
C         66.92445        56.95133        -0.36699
C         65.94673        56.37374        -1.16361
C         66.97664        58.42405        -0.19245
C         65.90221        59.29158        -0.78179
C         66.56195        61.21843         0.70846
C         65.66538        60.63739        -0.17998
C         66.40725        62.59161         1.12935
C         65.40695        63.40337         0.51160
C         66.29886        65.38727         1.70534
C         65.35653        64.81794         0.79743
C         66.31489        66.80594         1.91803
C         65.44108        67.64256         1.15428
C         66.31390        69.60264         2.31423
C         65.49436        69.05285         1.36331
C         69.36082        31.41850         1.14485
C         69.39597        32.82966         1.10762
C         68.15744        33.60187         1.03390
C         69.54748        35.69897         0.91310
C         68.27463        35.00766         0.72801
C         69.59266        37.10888         0.90451
C         68.27043        37.82072         1.07823
C         69.64306        39.93158         0.43559
C         68.32730        39.33042         0.84003
C         69.71806        41.30875        -0.15801
C         68.49361        42.18018        -0.21392
C         69.77898        44.24435        -0.79275
C         68.56975        43.51825        -0.84282
C         69.85610        45.60931        -1.13595
C         68.62994        46.34067        -1.54557
C         69.85263        48.58829        -1.24922
C         68.55846        47.81623        -1.41493
C         69.59732        49.91643        -0.58577
C         68.43820        50.63505        -0.97871
C         69.28970        52.63179         0.19870
C         68.32876        52.01896        -0.67538
C         69.10081        54.00323         0.58980
C         68.11066        54.79946        -0.04792
C         68.68358        56.66669         1.41239
C         67.93056        56.13993         0.31639
C         68.37185        58.02491         1.90969
C         67.81137        58.98942         0.91875
C         68.26017        60.91121         2.58091
C         67.66650        60.43017         1.30589
C         68.15354        62.29357         2.88531
C         67.26111        63.14693         2.12519
C         68.05809        65.11127         3.42231
C         67.20077        64.54159         2.42166
C         68.06982        66.52555         3.64322
C         67.20565        67.37996         2.87038
C         67.96050        69.36707         4.15489
C         67.18469        68.79571         3.11131
C         67.75751        70.69624         4.60909
C         71.77467        31.31109         1.17464
C         70.52884        30.66744         1.18064
C         71.83730        32.69718         1.13053
C         70.66383        33.48618         1.09460
C         71.96128        35.64794         1.20728
C         70.73962        34.93960         1.06662
C         72.01046        37.02820         1.17144
C         70.82807        37.81208         1.01682
C         72.06983        40.01963         0.93706
C         70.87987        39.24211         0.87595
C         72.15587        41.32402         0.50318
C         71.04698        42.01818        -0.18375
C         72.22406        44.34083        -0.12436
C         71.05372        43.50368        -0.48647
C         72.27821        45.64070        -0.43885
C         71.16305        46.36664        -1.15111
C         71.62824        48.27566         0.47927
C         70.90668        47.74858        -0.57430
C         71.48940        49.61608         0.89741
C         70.49570        50.46690         0.35172
C         71.13065        52.44110         1.78148
C         70.31061        51.84618         0.78179
C         70.91772        53.73333         2.20770
C         69.89994        54.55080         1.63618
C         70.39490        56.48633         3.17473
C         69.64445        55.89321         2.08110
C         70.16848        57.73646         3.64713
C         69.09153        58.58422         3.10718
C         69.75638        60.60054         4.46081
C         69.06562        60.05874         3.36002
C         69.70487        61.95933         4.73423
C         68.92106        62.83375         3.95216
C         69.78074        64.85368         5.12830
C         68.91567        64.26877         4.18978
C         69.81112        66.23494         5.31436
C         68.95854        67.08036         4.60113
C         69.41181        69.02057         6.17211
C         69.09429        68.57863         4.76469
C         69.11029        70.27536         6.59573
C         68.33533        71.15832         5.77561
O         56.75054        42.54423        -1.64039
O         64.97006        37.18669        -0.71403
O         45.48577        52.22170        -0.29154
O         62.79101        58.17623        -3.69469
O         67.72256        58.01585         3.22573
O         71.39870        42.52001        -1.52944
O         60.65298        64.31448        -0.31203
O         60.61241        44.93257         1.04494
O         57.59587        63.21059        -0.88637
O         60.03997        48.99277        -3.86967
O         67.44907        39.96949         1.83498
O         59.24303        43.04409         1.95758
O         43.26429        49.52635         2.83874
O         62.26456        61.32271        -3.34947
O         63.10780        47.77703        -3.40810
O         50.25307        47.36120         1.66149
O         66.61027        43.37675        -2.37698
O         64.68082        52.50843        -3.75519
O         46.38365        56.43243        -2.38413
O         69.65197        40.15243        -1.04348
O         53.28871        51.67016        -3.81235
O         65.59056        46.25069         0.03047
O         67.80975        42.31070         1.09912
O         68.02031        45.89633        -2.84956
O         47.02374        50.09036         3.31116
O         68.76435        59.97415         0.41456
O         67.21494        59.16983        -1.43418
O         53.01151        43.61787        -2.60558
O         66.11314        35.04477        -0.34786
O         63.10577        58.72393        -0.09105
H         62.27099        59.15387         0.19070
O         71.59449        46.53345        -2.54926
H         71.50121        45.66286        -2.99300
O         56.41356        51.14124        -4.56057
H         55.53470        51.14159        -5.00927
O         61.52516        43.86020        -1.92048
H         62.06100        44.06239        -2.71736
O         65.97991        39.63879        -1.59880
H         65.15136        39.27900        -2.00055
O         61.07144        39.92945        -0.80433
H         60.34310        40.58623        -0.77731
O         53.51431        46.11265        -3.73863
H         53.42970        45.13801        -3.85726
O         70.31645        48.90560        -2.60626
H         70.76062        48.09064        -2.95430
O         58.52989        55.10346        -4.33185
H         59.40999        55.30860        -4.71480
O         65.19859        59.03719        -3.04285
H         66.17571        58.95822        -3.12449
O         56.23121        60.66291        -4.50333
H         57.11396        60.30920        -4.74815
O         57.45964        48.15992        -4.34551
H         58.34856        48.46162        -4.65800
O         64.01408        65.19555        -2.14193
H         64.31950        66.12389        -2.23675
O         57.61056        57.25409        -0.52813
H         56.86430        57.80307        -0.20454
O         70.29213        68.93900         3.96546
H         70.40093        69.91132         4.04065
O         51.40175        49.90204        -3.34891
H         51.77560        50.43648        -4.08650
O         63.33530        39.12789        -1.43080
H         62.41154        39.14311        -1.77688
O         62.06579        40.38515         2.67761
H         61.64812        40.11658         3.52171
O         54.55873        49.57057        -4.53588
H         55.24569        48.92428        -4.81732
O         51.06605        56.86361        -0.16624
H         51.82174        56.50790         0.34595
O         67.95038        37.59705         2.48444
H         67.44717        38.38840         2.79157
O         50.23053        56.69114        -3.73868
H         50.19695        55.71385        -3.81437
O         52.57887        50.74900         0.00129
H         52.12108        51.05559         0.81232
O         58.84669        52.00940        -0.81984
H         58.80553        52.91214        -0.43620
O         64.65012        40.06973         1.80565
H         65.42949        40.58653         2.10300
O         64.09388        55.15070        -4.09351
H         64.26860        54.23036        -4.41129
O         68.11912        54.60041        -2.40803
H         67.62035        54.30024        -3.19765
O         61.22004        52.09501        -4.49446
H         61.99898        51.56767        -4.77463
O         59.91443        61.96577        -4.21539
H         60.86472        62.00566        -4.47808
H         41.07339        50.38096         7.55741
H         39.57132        51.88285         8.79917
H         40.59078        55.14834         6.18477
H         39.33248        54.27894         8.11361
H         42.49693        49.35557         6.81580
H         41.56909        55.80853         4.68296
H         43.98818        47.85011         5.63188
H         42.80236        56.61581         2.75582
H         46.17273        45.06504         2.65363
H         44.44119        46.42296         3.74104
H         44.55093        57.76360        -1.13298
H         43.42262        57.09483         0.97813
H         47.27362        44.01279         1.39817
H         46.69732        58.87618        -2.99128
H         48.98248        42.69876         0.25383
H         48.73512        60.25994        -2.76858
H         52.56905        40.46933        -0.55502
H         50.48471        41.59484        -0.65940
H         52.40846        62.50388        -2.36227
H         50.33069        61.27260        -2.17558
H         54.03105        40.17627         1.05661
H         53.98277        63.43080        -3.09520
H         56.03228        39.36499         2.14264
H         56.04920        64.70031        -2.87068
H         59.56704        36.97363         2.44231
H         57.62045        38.38793         2.44991
H         59.59784        67.06813        -1.92889
H         57.79862        65.66103        -2.54638
H         61.34086        36.02751         2.90134
H         61.76062        68.05006        -1.61158
H         63.18739        34.45132         2.52543
H         63.80277        68.96410        -0.62185
H         66.98308        32.05384         1.92832
H         64.98429        33.32663         2.32160
H         66.30934        70.69264         2.44579
H         64.85048        69.71998         0.77584
H         68.39432        30.89641         1.12294
H         67.05825        71.35658         4.07701
H         72.70042        30.71974         1.19660
H         70.47621        29.57010         1.20283
H         72.82377        33.17987         1.11211
H         72.90203        35.09738         1.34376
H         72.98448        37.52817         1.26264
H         72.98349        39.55276         1.33391
H         73.13311        41.82535         0.54371
H         73.10012        43.84955         0.32439
H         73.20678        46.20099        -0.25371
H         72.39345        47.66381         0.97958
H         72.17473        49.98902         1.66997
H         71.93813        51.85804         2.24474
H         71.56422        54.13617         2.99854
H         71.21204        55.90507         3.62339
H         70.83218        58.14201         4.42397
H         70.35869        59.95022         5.10917
H         70.28093        62.34229         5.58647
H         70.47182        64.23324         5.71327
H         70.53669        66.65119         6.02566
H         70.00698        68.36131         6.81933
H         69.42779        70.61717         7.59151
H         68.12928        72.17869         6.12583
