         732
 CSIRO Nanostructure Databank - Neutral Graphene Oxide Data Set
C         23.02911        24.55609         1.74911
C         22.26002        24.93597         0.68923
C         23.25108        27.17164         0.59165
C         22.35773        26.22244         0.08333
C         23.29909        28.56134         0.15308
C         22.26670        29.12723        -0.63458
C         23.27219        31.35381        -0.49402
C         22.23919        30.48002        -0.92443
C         23.20817        32.78588        -0.69981
C         22.07380        33.43832        -1.24183
C         23.11612        35.63994        -1.01752
C         22.01639        34.81969        -1.36307
C         23.05434        37.11205        -1.13476
C         21.84309        37.80588        -1.32051
C         23.00059        39.95982        -1.31316
C         21.82687        39.19863        -1.41002
C         22.93429        41.46366        -1.47779
C         21.80337        42.11415        -0.71407
C         22.96574        44.26302        -0.86152
C         21.80630        43.45050        -0.51870
C         22.86745        45.67953        -1.13589
C         21.57575        46.25868        -1.22400
C         22.44501        48.11082        -2.47859
C         21.36581        47.47218        -1.86076
C         25.54803        23.26444         2.48868
C         25.54017        24.71454         2.07328
C         24.12047        25.41565         2.32701
C         25.03089        27.73225         2.10744
C         24.10678        26.79769         1.67691
C         25.39568        28.91529         1.42786
C         24.37517        29.41077         0.54939
C         25.49703        31.59991         0.60282
C         24.38621        30.78984         0.18702
C         25.44548        32.98117         0.33930
C         24.31681        33.58791        -0.30345
C         25.48573        35.78102        -0.31806
C         24.28241        35.00326        -0.53093
C         25.51274        37.15834        -0.87263
C         24.24097        37.87734        -1.06225
C         25.48250        40.07084        -1.08343
C         24.23838        39.29589        -1.15510
C         25.45610        41.51486        -1.13810
C         24.23464        42.18734        -1.19072
C         25.42977        44.39237        -0.98630
C         24.18634        43.60739        -1.06098
C         25.38108        45.91414        -1.26582
C         24.01192        46.41413        -1.59483
C         25.74162        48.81323        -2.29699
C         23.73078        47.58047        -2.33500
C         25.76476        50.21197        -2.29664
C         28.01480        23.25404         2.77106
C         26.68728        22.60006         2.73004
C         28.08895        24.72437         2.54932
C         26.80913        25.43049         2.58573
C         28.04231        27.63460         2.71184
C         26.86223        26.76504         2.86007
C         27.88493        28.99093         2.08622
C         26.66524        29.59482         1.60383
C         27.87657        31.71573         1.28595
C         26.68433        30.97065         1.17099
C         27.85628        33.18551         1.18896
C         26.55060        33.84756         0.76503
C         27.84063        36.00085         0.50164
C         26.60073        35.22394         0.25026
C         27.89133        37.42019         0.04370
C         26.75031        37.96975        -0.73804
C         27.94979        40.14145        -0.82837
C         26.70063        39.43690        -0.86988
C         27.94160        41.57219        -1.01078
C         26.70239        42.26227        -1.09081
C         27.91371        44.42629        -1.13007
C         26.70656        43.68074        -1.11761
C         27.89503        45.88681        -1.26754
C         26.70417        46.59244        -1.51777
C         27.97453        48.74417        -1.40622
C         26.77774        48.03006        -1.73452
C         27.99201        50.17242        -1.35710
C         26.84927        50.89133        -1.75153
C         30.28466        20.32860         1.83657
C         29.28868        20.98225         2.44774
C         30.54001        23.18431         2.24293
C         29.28978        22.44824         2.64516
C         30.58965        24.68395         2.35416
C         29.30014        25.39436         2.57483
C         30.58413        27.60274         2.22229
C         29.36080        26.87489         2.62203
C         30.39932        29.04864         2.21470
C         29.11647        29.68801         1.94385
C         30.31383        31.85450         1.57737
C         29.10654        31.07901         1.59100
C         30.34861        33.23157         1.17576
C         29.12400        33.92092         0.98046
C         30.35251        35.96637         0.40749
C         29.12523        35.28353         0.65681
C         30.35001        37.33395        -0.05721
C         29.18711        38.06318        -0.22747
C         30.42422        40.14050        -0.77131
C         29.16308        39.44631        -0.63400
C         30.42746        41.58547        -0.99714
C         29.15572        42.30861        -1.02131
C         30.45160        44.44492        -0.87878
C         29.13978        43.71787        -1.07627
C         30.41639        45.91042        -1.22239
C         29.17650        46.59037        -1.25665
C         30.42880        48.72193        -1.16931
C         29.19261        48.01624        -1.24229
C         30.43120        50.15639        -0.98412
C         29.21315        50.86168        -0.98265
C         30.38392        52.90104        -0.32161
C         29.21914        52.24770        -0.64495
C         32.94653        19.08057         1.65476
C         32.75900        20.36692         1.20985
C         31.38387        20.99481         1.04925
C         32.69072        23.29860         0.88915
C         31.45341        22.52730         1.24836
C         32.82360        24.73917         1.23958
C         31.73533        25.44359         1.76042
C         33.06301        27.50925         1.65010
C         31.76911        26.88520         1.91715
C         33.35692        28.79159         2.14918
C         31.47336        29.90847         2.47181
C         32.69086        32.06906         2.10968
C         31.50131        31.27909         2.08749
C         32.82592        33.28217         1.41830
C         31.59140        33.93240         1.03763
C         32.85332        35.99577         0.46783
C         31.58986        35.28642         0.60616
C         32.86888        37.33030         0.01825
C         31.61986        37.91080        -0.60192
C         32.87867        40.05034        -0.99524
C         31.59843        39.41557        -0.67885
C         32.87412        41.53643        -1.28078
C         31.60623        42.26554        -1.20097
C         32.92360        44.44828        -1.36833
C         31.59976        43.73098        -1.58130
C         32.93402        45.88293        -1.45168
C         31.65142        46.60347        -1.35938
C         32.88386        48.80360        -1.50562
C         31.64387        48.01737        -1.31020
C         32.90337        50.19604        -0.97950
C         31.66530        50.85567        -0.75961
C         32.87193        52.91420        -0.09746
C         31.64961        52.24117        -0.38838
C         32.93251        54.33941         0.18023
C         35.31349        18.97163         0.96433
C         34.18984        18.39740         1.55392
C         35.18688        20.33510         0.39538
C         33.86976        21.07206         0.52744
C         35.06893        23.23736         0.17060
C         33.90380        22.55304         0.49900
C         35.10316        24.68073         0.21092
C         34.02630        25.39772         0.77576
C         35.34356        27.49367         0.63727
C         34.12520        26.81518         0.98155
C         35.44611        28.88867         0.90616
C         34.45941        29.54429         1.69190
C         35.48085        31.73650         1.22634
C         34.57155        30.94318         1.92846
C         35.32557        33.16649         1.05213
C         34.11523        33.89606         1.10728
C         35.28812        36.02035         0.49707
C         34.09246        35.30313         0.70459
C         35.31484        37.40418         0.18863
C         34.08477        38.06530        -0.08571
C         35.33802        40.12699        -0.64519
C         34.12759        39.41340        -0.55150
C         35.31070        41.54856        -0.94209
C         34.13513        42.26449        -1.10474
C         35.35455        44.41270        -1.16582
C         34.10963        43.71304        -1.21270
C         35.36474        45.79286        -1.50701
C         34.16423        46.57325        -1.61370
C         35.41206        48.93125        -1.54384
C         34.18827        48.08002        -1.76545
C         35.37623        50.23236        -0.97582
C         34.11187        50.86924        -0.71057
C         35.33390        52.85516         0.14861
C         34.10649        52.20859        -0.19194
C         35.28603        54.12609         0.95974
C         34.07116        54.94307         0.59102
C         37.76132        16.17203         0.48990
C         36.63566        16.87504         0.89550
C         37.81575        19.04169         0.48310
C         36.54838        18.27745         0.78404
C         37.61613        20.41459        -0.12281
C         36.40151        21.11208         0.06969
C         37.37408        23.16644        -0.80424
C         36.28781        22.50647        -0.17977
C         37.44617        24.65954        -0.97131
C         36.27756        25.40741        -0.35546
C         37.69260        27.49430        -0.15929
C         36.44780        26.82765         0.02574
C         37.77290        28.90324         0.13241
C         36.61075        29.61761         0.55336
C         37.83961        31.73028         0.47572
C         36.62210        31.03120         0.68941
C         37.85100        33.13955         0.61464
C         36.54135        33.82379         0.53222
C         37.81523        36.05009         0.47253
C         36.55452        35.29972         0.34488
C         37.80082        37.40439         0.33937
C         36.55678        38.10511         0.04430
C         37.86482        40.12794        -0.48668
C         36.57548        39.46048        -0.33374
C         37.89707        41.52983        -0.98122
C         36.59078        42.26127        -1.11085
C         37.80601        44.43097        -0.84842
C         36.59495        43.72789        -1.00772
C         37.81714        45.82728        -1.12616
C         36.66455        46.31672        -1.74315
C         37.88794        49.01336        -1.48853
C         36.67874        48.47846        -1.92326
C         37.85797        50.31593        -0.94515
C         36.59558        50.94471        -0.73884
C         37.81227        52.95361         0.07064
C         36.57205        52.25495        -0.14916
C         37.81089        54.30199         0.59660
C         36.59146        54.89873         0.98958
C         37.80036        56.88426         1.72480
C         36.61233        56.18046         1.56224
C         39.99079        14.72251        -0.88716
C         40.04554        16.09613        -0.60079
C         38.86610        16.84471        -0.12503
C         40.02385        18.91283        -0.82241
C         38.83921        18.22143        -0.24771
C         39.97510        20.37293        -1.13742
C         38.65074        21.03705        -0.84794
C         40.24959        23.38286        -1.58130
C         38.36978        22.32765        -1.32425
C         40.12967        24.65902        -1.09809
C         38.81717        25.44133        -1.27119
C         40.13918        27.45820        -0.45672
C         38.89456        26.79845        -0.54722
C         40.20792        28.88173        -0.19134
C         39.00152        29.60147         0.05258
C         40.27536        31.73054         0.24965
C         39.04657        31.01632         0.25359
C         40.27531        33.14049         0.46965
C         39.04955        33.84632         0.61684
C         40.32190        36.02867         0.55023
C         39.04960        35.32420         0.94546
C         40.32616        37.40047         0.40451
C         39.05351        38.20221         0.61218
C         40.33023        40.14544        -0.46025
C         39.04000        39.51099        -0.14365
C         40.37908        41.65523        -0.71008
C         39.10003        42.35177        -0.72662
C         40.31105        44.47417        -0.52274
C         39.07731        43.73739        -0.67294
C         40.23628        45.95335        -0.23583
C         38.99005        46.68231        -0.78483
C         40.39616        48.83121        -1.26800
C         39.05273        48.15983        -1.08764
C         40.36339        50.30908        -0.87998
C         39.09719        50.99339        -0.69063
C         40.27126        53.14524        -0.30046
C         39.04007        52.34093        -0.27981
C         40.29864        54.44085         0.38868
C         39.04775        55.01826         0.77810
C         40.29395        57.04099         1.51300
C         39.03942        56.32618         1.34220
C         40.31689        58.35571         2.02774
C         42.37842        14.69465        -1.29652
C         41.15126        14.03754        -1.25363
C         42.46493        16.07282        -1.00575
C         41.28049        16.77421        -0.70579
C         42.55397        18.96610        -0.88578
C         41.31919        18.25299        -0.40178
C         42.54023        20.35137        -1.04362
C         41.28853        21.12548        -1.15305
C         42.66823        23.23941        -1.40323
C         41.37106        22.49311        -1.32098
C         42.59930        24.61660        -0.79095
C         41.38174        25.32022        -0.72882
C         42.64778        27.40166        -0.49848
C         41.39269        26.73045        -0.54469
C         42.65181        28.87727        -0.60012
C         41.42310        29.59557        -0.23091
C         42.74375        31.67601         0.11301
C         41.49417        31.00006         0.01051
C         42.75866        33.06714         0.61463
C         41.51718        33.86583         0.55332
C         42.80875        36.01300         0.64508
C         41.54247        35.25852         0.57390
C         42.80443        37.43525         0.25919
C         41.57104        38.11723         0.22244
C         42.79141        40.22419        -0.09647
C         41.58018        39.49999        -0.06137
C         42.77055        41.66740        -0.14316
C         41.60815        42.38443        -0.36520
C         42.73372        44.59337         0.01362
C         41.53783        43.83321        -0.28047
C         42.76084        45.99489        -0.08365
C         41.53508        46.71673        -0.44516
C         42.74824        48.87652        -0.20064
C         41.54831        48.06830        -0.63680
C         42.85837        50.21625        -0.92738
C         41.55991        50.97520        -0.76053
C         42.83096        53.09123        -0.12433
C         41.59152        52.43267        -0.56570
C         42.79408        54.42300         0.33211
C         41.52783        55.09117         0.60254
C         42.76251        57.10866         1.37293
C         41.53004        56.41411         1.16852
C         42.73048        58.41446         1.88978
C         41.51811        59.03075         2.20633
C         44.96621        16.08398        -1.02701
C         43.74740        16.78674        -0.99440
C         45.03712        18.88732        -1.00651
C         43.77851        18.20919        -0.95567
C         45.05500        20.31436        -0.98990
C         43.82112        21.04234        -1.05969
C         45.07846        23.13364        -0.74913
C         43.86598        22.44280        -1.01101
C         45.06449        24.52804        -0.47178
C         43.84030        25.26263        -0.51779
C         45.17455        27.35108        -0.41840
C         43.85117        26.68379        -0.40736
C         45.23341        28.84290        -0.51856
C         43.95934        29.62663        -0.59140
C         45.22793        31.67232         0.00839
C         43.97682        31.02261        -0.10716
C         45.29935        33.08070         0.24494
C         44.08834        33.78597         0.69213
C         45.34481        35.95330         0.20051
C         44.12452        35.27931         0.68776
C         45.20717        37.31614        -0.43887
C         44.01613        38.11723         0.03675
C         45.30172        40.23233        -0.04103
C         44.02969        39.52204        -0.03399
C         45.29938        41.67924         0.15551
C         43.99945        42.36269         0.28290
C         45.27684        44.56172         0.34433
C         43.97724        43.87043         0.38614
C         45.23016        46.04704         0.58737
C         43.99285        46.71560         0.03471
C         45.26297        48.79919        -0.24431
C         44.03517        48.09593        -0.18872
C         45.29077        50.23016        -0.36808
C         44.09694        50.96544        -0.49651
C         45.27702        53.08187        -0.05936
C         44.06796        52.38445        -0.24622
C         45.27708        54.43585         0.35443
C         44.03100        55.09909         0.60362
C         45.26185        57.10437         1.22020
C         44.02803        56.44980         1.06550
C         46.18996        16.74371        -1.02879
C         47.53201        18.85680        -1.04813
C         46.26205        18.15137        -1.02572
C         47.55287        20.27923        -1.01031
C         46.30020        21.01448        -0.95141
C         47.56008        23.14445        -0.66844
C         46.31070        22.41476        -0.79023
C         47.58235        24.43406        -0.22729
C         46.29566        25.12456         0.16354
C         47.58255        27.28089         0.21787
C         46.39495        26.62273         0.01740
C         47.58059        28.75829         0.53571
C         46.44525        29.53744        -0.05663
C         47.72814        31.60234         0.18555
C         46.46620        30.91495        -0.00614
C         47.78060        33.07044        -0.14075
C         46.48492        33.78598         0.12139
C         47.80544        35.89465        -0.12440
C         46.51202        35.22547         0.07371
C         47.83294        37.35025        -0.43962
C         46.51888        38.10078        -0.52466
C         47.76442        40.29597        -0.17429
C         46.48883        39.54869        -0.21917
C         47.73340        41.62491         0.55475
C         46.46739        42.39880         0.29458
C         47.75359        44.53103         0.43496
C         46.47929        43.85266         0.37593
C         47.78695        46.02603         0.63344
C         46.51681        46.74062         0.23190
C         47.76688        48.78451        -0.41751
C         46.50494        48.06546        -0.11084
C         47.77058        50.25976        -0.31927
C         46.56185        50.92878        -0.30253
C         47.80308        53.09225        -0.07679
C         46.53999        52.41961        -0.52729
C         47.78738        54.42355         0.33450
C         46.52396        55.12576         0.54344
C         46.47535        56.46330         0.96014
C         49.97217        18.85893        -1.17604
C         48.77163        18.17419        -1.11615
C         50.01029        20.27699        -1.17262
C         48.78714        20.97192        -1.05461
C         50.08839        23.11387        -0.72795
C         48.80234        22.47475        -1.18992
C         50.11953        24.45214        -0.30389
C         48.86423        25.08037         0.25619
C         50.04687        27.29777         0.29242
C         48.85801        26.59441         0.22896
C         50.07848        28.74013         0.49656
C         48.90920        29.46338         0.44712
C         50.15807        31.64576         0.59842
C         48.90617        30.91296         0.41744
C         50.16631        33.00893         0.61726
C         48.87461        33.78977         0.63281
C         50.29968        35.89461        -0.01251
C         48.95962        35.22719         0.15172
C         50.23986        37.39802         0.20143
C         49.08291        38.07797        -0.10238
C         50.26516        40.26146         0.39930
C         49.07646        39.55081        -0.10891
C         50.23738        41.68244         0.50824
C         49.01573        42.40075         0.42409
C         50.24413        44.53192         0.54091
C         48.98080        43.82064         0.46574
C         50.26534        45.95266         0.28703
C         49.05620        46.64421         0.11539
C         50.32024        48.83769        -0.23851
C         49.06829        48.04911        -0.31900
C         50.29809        50.20600        -0.36678
C         49.04436        50.96342        -0.35138
C         50.28305        53.14459        -0.30463
C         49.03221        52.36009        -0.23761
C         50.23670        54.50544         0.26255
C         49.05544        55.08493         0.58180
C         52.48518        20.37643        -1.58535
C         51.26891        21.01481        -1.27578
C         52.54062        23.13228        -0.97815
C         51.29920        22.42271        -1.00542
C         52.56597        24.52328        -0.62326
C         51.33601        25.15799        -0.26340
C         52.61132        27.36299        -0.04542
C         51.31589        26.62393        -0.07508
C         52.66440        28.72777         0.57249
C         51.36413        29.41544         0.84269
C         52.67826        31.62738         0.91965
C         51.35297        30.90610         1.17076
C         52.65919        32.99965         1.03004
C         51.38207        33.74806         1.00654
C         52.69464        35.95814         0.78499
C         51.39913        35.23661         0.80302
C         52.67469        37.38564         0.72545
C         51.46010        38.10330         0.52228
C         52.67251        40.24255         0.92543
C         51.45539        39.53208         0.61944
C         52.64315        41.67072         1.01940
C         51.46522        42.38482         0.78915
C         52.66260        44.56961         0.94538
C         51.44833        43.83625         0.77265
C         52.66634        45.97643         0.69165
C         51.52080        46.64419         0.25170
C         52.80028        48.84872         0.23328
C         51.62148        48.05457        -0.30371
C         52.80936        50.25382         0.03035
C         51.62562        50.90159        -0.67834
C         52.84662        53.11460        -0.18796
C         51.58966        52.42587        -0.53866
C         53.68183        21.08004        -1.63508
C         54.97621        23.21462        -1.40386
C         53.74487        22.46348        -1.33247
C         54.99724        24.60008        -1.03911
C         53.80425        25.22754        -0.60606
C         55.09255        27.42276        -0.33885
C         53.89988        26.57748         0.06567
C         55.09160        28.83215        -0.06634
C         53.91744        29.50755         0.39795
C         55.14567        31.62249         0.50886
C         53.92221        30.90125         0.65263
C         55.21056        33.04367         0.89132
C         53.89852        33.78784         1.13653
C         55.12758        35.96200         0.92344
C         53.88508        35.25353         0.93828
C         55.11599        37.36750         0.99671
C         53.90075        38.09912         0.93696
C         55.14873        40.25002         1.12413
C         53.88975        39.52568         1.04250
C         55.15308        41.66499         1.22452
C         53.86146        42.38690         1.54844
C         55.08189        44.55516         1.41687
C         53.89344        43.87500         1.23946
C         55.07889        46.03198         1.56448
C         53.84630        46.76507         1.10654
C         55.15299        48.91006         0.95844
C         53.92318        48.20314         0.76178
C         55.17036        50.31751         0.71191
C         53.96280        50.99266         0.32590
C         53.94991        52.44035         0.19030
C         57.34846        23.33530        -1.92022
C         56.18216        22.60752        -1.82522
C         57.39123        24.71956        -1.60131
C         56.22116        25.35810        -1.13874
C         57.44556        27.53680        -1.03978
C         56.24137        26.78137        -0.83326
C         57.46893        28.93211        -0.75515
C         56.29325        29.58835        -0.27980
C         57.53592        31.75004        -0.14436
C         56.32062        30.99214         0.02334
C         57.56631        33.16128         0.08757
C         56.38766        33.84999         0.52292
C         57.55514        36.01206         0.40405
C         56.36769        35.24061         0.68761
C         57.57818        37.39773         0.59955
C         56.41439        38.07157         1.27959
C         57.60122        40.26222         0.94994
C         56.37402        39.55923         1.05819
C         57.60799        41.68824         1.05146
C         56.37448        42.35732         1.25547
C         57.65469        44.56458         1.41010
C         56.35912        43.80989         1.54067
C         57.58361        46.04444         1.19497
C         56.39018        46.78944         1.78032
C         57.58715        48.93446         1.27547
C         56.37329        48.23699         1.29579
C         57.58029        50.33035         1.04017
C         56.40647        51.00894         0.80098
C         59.80224        24.84804        -2.21801
C         58.62350        25.47354        -1.77288
C         59.84220        27.60995        -1.68247
C         58.63523        26.87401        -1.50182
C         59.86708        29.03012        -1.37777
C         58.68655        29.68447        -0.92578
C         59.94417        31.79222        -0.75711
C         58.72468        31.08137        -0.61612
C         60.07159        33.23414        -0.33081
C         58.74690        33.92655        -0.14517
C         59.88064        36.11163        -0.45593
C         58.73510        35.32674        -0.04790
C         59.89693        37.49339        -0.25374
C         58.76384        38.15417         0.36269
C         60.14361        40.22141         0.69313
C         58.80510        39.53332         0.65954
C         60.06919        41.73198         0.66297
C         58.86081        42.42787         0.91378
C         60.08985        44.57077         0.80718
C         58.88574        43.84638         0.99998
C         60.13418        46.03460         0.90911
C         58.85846        46.79043         1.02959
C         60.15177        48.91895         1.11463
C         58.89827        48.21655         1.57971
C         60.97358        25.57870        -2.40434
C         60.99563        26.94425        -2.14154
C         61.06139        29.76761        -1.49034
C         61.09719        31.11885        -1.17167
C         60.99828        34.06113        -1.19075
C         60.94150        35.40811        -1.16329
C         60.98499        38.34291        -0.71402
C         61.07381        39.63768        -0.34730
C         61.25770        42.45481         0.50814
C         61.26929        43.84430         0.55275
C         61.28551        46.76442         0.80898
C         61.26262        48.21127         0.81901
O         43.56453        35.84893         1.91804
O         33.75712        31.57354         2.87920
O         26.47633        37.26473        -2.00171
O         26.94067        33.77188         2.18090
O         36.39651        25.18546        -1.84165
O         25.40774        45.37542         0.10176
O         43.24325        29.42425        -1.84533
O         31.15375        23.80005         3.41206
O         52.09205        28.70723         1.92433
O         47.26499        37.73733        -1.74459
O         31.49896        23.18295        -0.05768
O         25.72503        27.44594         3.29104
O         38.68101        47.71430         0.26166
O         32.56675        29.35493         3.15649
O         54.73975        33.34319         2.25103
O         36.44075        34.39632        -0.83963
O         28.89610        27.50821         3.89288
O         43.82612        43.02031         1.59276
O         36.76972        47.32346        -2.69007
O         40.90246        53.17736        -1.63450
O         45.46112        28.02688        -1.71994
O         33.39896        48.61521        -2.88106
O         28.79465        22.84327         3.95146
O         48.39682        48.27248        -1.64782
O         40.45738        40.69225        -1.81767
O         24.72628        48.23422        -3.05814
O         51.92517        27.29367        -1.30976
O         32.93697        40.55469        -2.38950
O         57.15522        44.17344         2.73142
O         34.24169        20.40809        -0.73854
O         39.19462        22.84666        -2.31475
O         43.49441        33.20647         1.89215
O         54.09781        46.50879         2.55723
O         27.62161        37.12642         1.45184
O         48.57315        40.19302        -1.36776
O         39.91322        19.34783        -2.20804
O         57.96232        46.52996        -0.12144
O         51.08211        34.69929         2.12145
O         37.31544        41.75961        -2.31103
O         50.90907        53.06698        -1.66986
O         45.08828        46.19182         2.05191
H         45.99855        46.10836         2.43218
O         25.68551        24.74981         0.62586
H         26.41929        24.15188         0.37236
O         48.46436        33.82488         2.02282
H         49.24032        34.14655         2.54168
O         23.90917        25.49763         3.74378
H         24.51674        26.18718         4.09830
O         48.90113        24.75678         1.69227
H         48.02590        25.03142         2.06308
O         31.03233        20.73309        -0.33246
H         31.39699        21.47982        -0.86606
O         38.75438        25.79144        -2.66914
H         37.80243        25.91512        -2.89512
O         22.64828        41.68608        -2.90311
H         22.55379        42.65370        -3.03298
O         38.44764        19.30512         1.80824
H         39.38643        19.00365         1.76295
O         38.99802        35.42696         2.41964
H         39.80615        34.99310         2.77116
O         47.84684        46.23063         2.13315
H         48.60162        45.69359         2.46143
O         40.61709        48.76816        -2.70576
H         41.51278        49.15959        -2.87909
O         59.01876        48.12085         3.02535
H         58.19922        47.68227         3.36914
O         31.32122        43.78471        -3.00557
H         31.99077        43.23952        -3.47035
O         60.69670        33.18495         1.00344
H         60.75559        34.10786         1.33057
O         31.66375        37.47218        -2.01485
H         32.32724        38.02921        -2.47797
O         43.04239        49.93334        -2.35303
H         43.22710        50.78373        -2.80649
O         56.59696        46.84162         3.21832
H         55.70525        46.93995         3.62704
O         30.75008        44.37241         0.55046
H         30.00903        44.79282         1.03550
O         42.49019        49.22979         1.19679
H         42.52853        48.40351         1.72541
O         39.02984        38.53494         2.03921
H         39.00222        37.67864         2.52613
O         48.76907        22.73057        -2.64368
H         49.55031        22.28726        -3.03825
O         56.65389        37.91283         2.73098
H         56.55387        36.95933         2.94109
O         41.31783        18.40127         1.06759
H         42.10482        17.92997         1.41591
O         44.82449        36.97282        -1.81346
H         45.65606        37.00198        -2.34773
O         51.86273        50.63949        -2.10030
H         51.37108        51.33730        -2.59413
O         47.27523        28.77033         1.99360
H         47.49312        29.66503         2.33575
O         60.74671        39.89612         1.99806
H         60.67657        38.92531         2.11894
O         54.05775        26.30687         1.49631
H         54.91056        25.84086         1.62401
O         42.85991        23.51064        -2.84886
H         42.87467        22.64583        -3.31202
O         47.65924        41.23141         1.97564
H         47.40283        42.02257         2.49588
O         46.51500        52.56933        -2.00344
H         47.34367        52.17124        -2.34805
O         46.13176        24.90312         1.62975
H         45.94871        23.94702         1.75730
O         51.89884        47.86604        -1.72698
H         51.90305        48.76683        -2.14043
O         40.11496        45.94785         1.22543
H         39.68703        46.80286         1.47322
O         51.13506        30.99823         2.60892
H         51.66330        30.27418         3.01882
O         53.72848        42.31788         3.01123
H         54.51627        42.75422         3.40210
O         50.72048        35.69103        -1.39700
H         50.02190        36.05276        -1.98336
O         35.07187        53.70577         2.36118
H         34.23593        53.19264         2.38312
O         48.10775        33.18401        -1.55584
H         47.45415        32.65816        -2.06300
H         22.82386        23.59223         2.23675
H         21.49065        24.24591         0.31165
H         21.68866        26.46810        -0.75211
H         21.43669        28.49379        -0.97708
H         21.38909        30.87980        -1.49361
H         21.20048        32.84841        -1.55196
H         21.10142        35.27493        -1.76661
H         20.89385        37.25768        -1.39486
H         20.86596        39.70696        -1.57229
H         20.93137        41.51367        -0.41707
H         20.94343        43.93056        -0.03497
H         20.71169        45.71241        -0.82527
H         22.30504        49.03077        -3.05973
H         20.35524        47.89637        -1.92968
H         24.59729        22.71380         2.51665
H         24.92485        50.76091        -2.74123
H         26.65029        21.53600         3.00610
H         26.84587        51.98888        -1.73675
H         30.22293        19.23397         1.75086
H         28.48038        20.41538         2.93276
H         30.33511        53.95642        -0.02177
H         28.27008        52.79882        -0.59623
H         32.11048        18.53866         2.11907
H         32.03672        54.95173         0.00272
H         34.25055        17.38508         1.97625
H         34.07546        56.02815         0.76966
H         37.77860        15.07832         0.58893
H         35.76037        16.30495         1.23881
H         37.75635        57.88258         2.17940
H         35.67580        56.63704         1.91104
H         39.03417        14.18466        -0.84013
H         39.38160        58.86526         2.29306
H         43.27728        14.12797        -1.57350
H         41.09894        12.96682        -1.49479
H         43.66113        58.97208         2.05667
H         41.51608        60.05392         2.60669
H         44.96438        14.98582        -1.03818
H         45.29636        58.15009         1.55273
H         47.10782        16.14124        -1.03913
H         47.40040        57.03796         1.10021
H         50.90625        18.28371        -1.23118
H         48.79511        17.07635        -1.13441
H         51.17299        55.06354         0.39732
H         49.06209        56.10149         0.99736
H         52.50037        19.30159        -1.81182
H         52.87843        54.20798        -0.28806
H         54.59411        20.53208        -1.90507
H         54.85710        53.01099         0.42493
H         58.25228        22.81994        -2.26748
H         56.20188        21.54448        -2.09801
H         58.51928        50.89758         1.06158
H         56.45527        52.09159         0.63091
H         59.82232        23.77177        -2.42904
H         60.20568        50.01609         1.13830
H         61.88288        25.07365        -2.75783
H         61.93370        27.49129        -2.29758
H         61.99221        29.28291        -1.80957
H         62.05547        31.65188        -1.22973
H         61.80080        33.56589        -1.75585
H         61.68475        35.99215        -1.72473
H         61.73298        37.92453        -1.40277
H         61.90558        40.24888        -0.72635
H         62.20761        41.92288         0.36309
H         62.22431        44.36811         0.41673
H         62.26114        46.27590         0.68260
H         62.19656        48.73638         0.57004
