         651
 CSIRO Nanostructure Databank - Neutral Graphene Oxide Data Set
C          6.02172        31.60858         1.03326
C          6.03342        32.96050         1.13231
C          8.39631        27.31635         0.20254
C          8.33312        28.73652         0.20308
C          7.14954        29.46356         0.50327
C          8.26591        31.57548        -0.04479
C          7.12287        30.86068         0.44833
C          8.15568        33.02716        -0.31034
C          7.01489        33.77524         0.38594
C          8.40965        35.85288         0.54153
C          7.27974        35.16016         0.83232
C          8.71684        37.12840         1.32217
C         10.84093        23.07886        -0.49481
C         10.82457        24.46660        -0.27298
C          9.63586        25.19707        -0.11561
C         10.84058        27.37729        -0.04160
C          9.60777        26.62091         0.02663
C         10.77019        28.77692        -0.11599
C          9.52904        29.47988        -0.05805
C         10.68791        31.62594        -0.68457
C          9.47478        30.89631        -0.21506
C         10.64198        33.08497        -1.02610
C          9.36236        33.82764        -0.73931
C         10.74269        36.00374        -0.46227
C          9.44634        35.28580        -0.35836
C         10.59802        37.51338        -0.46020
C          9.75291        38.04396         0.69911
C         10.94463        40.22299         0.64872
C          9.93453        39.30443         1.17942
C         11.15646        41.53985         1.10051
C         13.34670        18.77830        -0.43936
C         13.32862        20.18370        -0.52235
C         12.09659        20.91723        -0.57353
C         13.30298        23.04453        -0.64882
C         12.06315        22.32405        -0.58165
C         13.24692        24.52568        -0.94943
C         12.15209        25.16941        -0.06138
C         13.28269        27.37483        -0.38328
C         12.10830        26.68151        -0.19707
C         13.33288        28.81946        -0.14457
C         12.00022        29.57450        -0.05279
C         13.18144        31.70675        -0.44324
C         12.00031        30.99575        -0.40480
C         13.12232        33.22769        -0.36942
C         11.96746        33.86653        -1.18592
C         13.15606        36.04815        -0.91773
C         11.90646        35.35138        -0.81949
C         13.18208        37.52114        -0.82169
C         11.92274        38.24923        -0.46488
C         12.71225        40.62549        -0.93853
C         11.80033        39.74148        -0.36574
C         13.07571        41.88659        -0.41743
C         12.22463        42.35147         0.64328
C         12.99279        44.70626         0.77387
C         12.44348        43.61378         1.35467
C         13.32547        46.03719         1.38149
C         16.01935        14.53599        -0.92755
C         15.91308        15.94586        -0.64945
C         14.70003        16.55914        -0.43915
C         15.84703        18.75783        -0.32126
C         14.56895        18.01024        -0.00480
C         15.84241        20.25309        -0.45073
C         14.55472        20.94892        -0.47132
C         15.78572        23.12949        -0.53194
C         14.51425        22.36168        -0.54765
C         15.73599        24.61561        -0.45186
C         14.55239        25.25389        -0.74854
C         15.80803        27.44343        -0.66043
C         14.52031        26.73274        -0.99055
C         15.78218        28.91244        -0.73959
C         14.50457        29.61743        -0.49325
C         15.72158        31.74507        -0.53268
C         14.43985        30.99510        -0.44697
C         15.69675        33.22724        -0.62162
C         14.41767        33.95331        -0.67602
C         15.64779        36.11250        -0.75891
C         14.40453        35.34592        -0.83191
C         15.66113        37.48578        -0.87680
C         14.45468        38.20006        -1.16870
C         15.65385        40.35962        -1.31813
C         14.51510        39.55003        -1.53288
C         15.61293        41.75914        -1.05872
C         14.38489        42.48759        -0.77710
C         15.73393        44.54856        -0.33776
C         14.52164        43.87767        -0.59333
C         15.78207        45.87280         0.34588
C         14.59342        46.66998         0.79471
C         15.91469        48.78882         0.71538
C         14.70639        48.01866         0.95179
C         15.92892        50.18004         0.91673
C         18.70635        10.40425        -1.34061
C         18.58956        11.78075        -1.02356
C         17.36900        12.47495        -1.20923
C         18.49896        14.59756        -0.63216
C         17.24121        13.86302        -0.94406
C         18.52611        16.08803        -0.56255
C         17.17871        16.79097        -0.87953
C         18.42138        18.88883        -0.20419
C         17.13216        18.07357         0.06095
C         18.25506        20.31936         0.24201
C         17.07356        20.95408        -0.03434
C         18.16744        23.17541         0.46370
C         17.03469        22.42222        -0.12849
C         18.16864        24.65711         0.23229
C         16.96612        25.33337        -0.30237
C         18.26627        27.47594        -0.17621
C         16.99891        26.75650        -0.41116
C         18.27590        28.89063        -0.14724
C         17.05195        29.66097        -0.45025
C         18.20912        31.83930         0.09620
C         16.89692        31.05694         0.15049
C         18.22858        33.25151        -0.32200
C         16.93875        33.96831        -0.25123
C         18.21226        36.11279        -0.71075
C         16.92337        35.44025        -0.40780
C         18.19555        37.48773        -0.87320
C         16.93070        38.28124        -0.62123
C         18.14954        40.38628        -1.28151
C         16.92115        39.57324        -1.46690
C         18.12990        41.76542        -1.25286
C         16.87423        42.47324        -1.01222
C         18.21218        44.54691        -0.70555
C         16.94354        43.84184        -0.64196
C         18.17642        46.02124        -0.61453
C         17.08489        46.66188         0.17231
C         18.32337        48.86391         0.19405
C         17.09840        48.12907         0.32211
C         18.37932        50.26423         0.62931
C         17.12524        50.94939         0.92932
C         18.03200        53.23801         1.42858
C         16.97825        52.36399         1.05794
C         18.29781        54.57499         1.17280
C         21.36469         6.17977        -1.37369
C         21.16361         7.50583        -0.97902
C         19.98349         8.25569        -1.32748
C         21.01392        10.29894        -0.42810
C         19.85405         9.62031        -1.05175
C         20.93411        11.74998        -0.06376
C         19.68209        12.48513        -0.34819
C         20.57821        14.51009         0.83678
C         19.58758        13.80959        -0.02009
C         20.66531        15.98764         0.81565
C         19.60295        16.77354         0.23621
C         20.63700        18.88557         1.07561
C         19.57617        18.15141         0.43827
C         20.64950        20.29733         1.04204
C         19.45955        21.04612         0.63470
C         20.61090        23.20607         1.06630
C         19.41936        22.42717         0.70918
C         20.66876        24.66172         0.65758
C         19.50503        25.28678        -0.10191
C         20.70005        27.49961         0.25859
C         19.48744        26.79626         0.04464
C         20.68891        28.92422         0.24294
C         19.47023        29.59617         0.05575
C         20.73771        31.73111        -0.47197
C         19.48631        31.08395         0.08581
C         20.72643        33.24929        -0.44131
C         19.42549        33.94199        -0.52846
C         20.69979        35.95788        -1.29650
C         19.41321        35.34729        -0.78882
C         20.71161        37.46622        -1.33480
C         19.49608        38.24310        -0.88378
C         20.63015        40.34348        -1.79575
C         19.36774        39.60575        -1.52777
C         20.58819        41.79112        -1.54473
C         19.40749        42.47894        -1.29431
C         20.65837        44.66500        -1.10474
C         19.41251        43.91602        -1.03936
C         20.72782        46.03963        -0.88719
C         19.47596        46.81432        -0.73525
C         20.79091        48.86157        -0.08675
C         19.49017        48.18342        -0.19528
C         20.76516        50.34523        -0.17217
C         19.61892        50.94682         0.55046
C         20.95153        53.06682         0.78813
C         19.88319        52.20194         1.12724
C         20.89986        54.47859         1.07045
C         19.61963        55.17766         1.35079
C         20.84319        57.34131         1.63339
C         19.63830        56.51371         1.70134
C         20.98163        58.54724         2.44302
C         23.94696         3.46144        -1.09004
C         22.77163         4.12945        -1.44010
C         23.55396         6.09431        -0.22070
C         22.55013         5.46450        -1.01989
C         23.34303         7.41606         0.25349
C         22.17053         8.12310        -0.14055
C         22.86032        10.02012         1.23576
C         22.02201         9.46675         0.24636
C         22.65654        11.39702         1.64158
C         21.83407        12.26486         0.99371
C         22.96274        14.44243         1.81606
C         21.76239        13.69990         1.37605
C         22.73046        15.77602         2.10431
C         21.70368        16.60340         1.51845
C         23.10746        18.88624         1.82167
C         21.77779        18.10145         1.63718
C         23.12894        20.41283         1.84484
C         21.83195        21.07550         1.39177
C         23.09872        23.23495         1.65413
C         21.84461        22.44837         1.32286
C         23.09985        24.66509         1.18622
C         22.02138        25.28150         0.35242
C         23.10873        27.50736         0.76440
C         21.95996        26.80131         0.49043
C         23.12025        28.99241         0.82815
C         21.90066        29.72241         0.42780
C         23.19767        31.85836         0.31549
C         21.94317        31.07108         0.17606
C         23.20203        33.30783        -0.10432
C         21.90079        33.94611        -0.44409
C         23.21145        36.04461        -1.07614
C         21.91718        35.45541        -0.51456
C         23.19121        37.38737        -1.49357
C         21.90214        38.10313        -1.55427
C         23.21796        40.27433        -1.79402
C         21.91789        39.56112        -1.83623
C         23.16784        41.68914        -1.32459
C         21.87973        42.43985        -1.24659
C         23.25606        44.61656        -1.10688
C         21.92085        43.93073        -1.33092
C         23.21135        46.02591        -0.69885
C         22.00755        46.68973        -0.67860
C         23.32730        48.85863        -0.57650
C         22.05446        48.11901        -0.28861
C         23.33468        50.35921        -0.55405
C         22.04475        51.10960        -0.33370
C         23.33666        53.16771         0.23487
C         22.13131        52.48677         0.20931
C         23.36228        54.54039         0.66220
C         22.10740        55.19533         0.96044
C         23.40968        57.30588         1.50773
C         22.13489        56.65793         1.16763
C         23.43835        58.52623         2.15066
C         22.21200        59.14907         2.64182
C         23.54172        60.96691         3.61183
C         22.31834        60.37820         3.37958
C         24.93885         4.08315        -0.32986
C         25.78958         6.10997         0.82793
C         24.76797         5.41541         0.12368
C         25.63560         7.44487         1.27029
C         24.31040         8.03679         1.10859
C         25.80111        10.39054         2.30646
C         23.94288         9.24287         1.71060
C         25.77742        11.81530         2.27071
C         24.54953        12.48268         2.29661
C         25.67513        14.66370         2.14945
C         24.38747        13.85077         1.66521
C         25.66834        16.08951         1.64566
C         24.63867        16.90914         1.99704
C         25.44052        18.89006         0.85277
C         24.42018        18.25065         1.54771
C         25.44291        20.33942         0.71428
C         24.32370        21.07296         1.17479
C         25.46492        23.15382         0.62512
C         24.32837        22.47826         1.10856
C         25.42308        24.64034         0.38379
C         24.39798        25.35742         1.34851
C         25.57364        27.47121         0.93254
C         24.36650        26.82989         1.00320
C         25.62864        28.85136         0.29952
C         24.43745        29.70610         0.65991
C         25.63352        31.76592        -0.15264
C         24.47879        31.12579         0.22362
C         25.66249        33.18121        -0.50801
C         24.46884        33.92669        -0.55026
C         25.66927        35.93124        -1.31999
C         24.46576        35.31655        -0.98697
C         25.71118        37.34103        -1.85418
C         24.42867        38.10367        -1.64110
C         25.70637        40.21715        -1.61428
C         24.48423        39.51128        -1.64641
C         25.71910        41.69250        -1.60540
C         24.44073        42.45777        -1.44999
C         25.77981        44.51000        -0.87670
C         24.47384        43.77303        -0.70822
C         25.76585        45.88482        -0.34871
C         24.47557        46.67203        -0.24841
C         25.75994        48.83503        -0.05871
C         24.57829        48.14915        -0.24927
C         25.78355        50.30585        -0.10000
C         24.60448        51.02975        -0.23603
C         25.85022        53.18433         0.11958
C         24.58366        52.53634        -0.35897
C         25.83443        54.53472         0.48661
C         24.59980        55.22797         0.70008
C         25.92958        57.24606         1.46978
C         24.64586        56.72926         0.86792
C         25.92485        58.47471         2.12995
C         24.71751        59.15249         2.46324
C         24.73918        60.35857         3.16961
C         26.78870         8.19760         1.62200
C         28.08847        10.33592         1.53694
C         26.89011         9.62080         1.81220
C         28.14638        11.75821         1.53199
C         26.96470        12.52698         1.82813
C         28.07101        14.59428         1.17709
C         26.92320        13.91502         1.68113
C         28.02286        15.96160         0.75999
C         26.69528        16.61934         0.73854
C         27.80498        18.77041        -0.16872
C         26.56368        18.07970         0.32464
C         27.78471        20.27416        -0.23068
C         26.60335        21.02389         0.25933
C         27.92391        23.15337         0.11387
C         26.64995        22.44094         0.29303
C         27.96236        24.59639         0.36150
C         26.75353        25.29400         0.56169
C         28.02105        27.19033         1.29848
C         26.78157        26.63863         0.96581
C         28.02524        29.32041         1.02746
C         26.88490        29.68509         0.37921
C         28.16374        31.77418        -0.16294
C         26.90809        30.96971        -0.41554
C         28.15458        33.14259        -0.53492
C         26.92878        33.79724        -0.79625
C         28.19364        35.95387        -1.06741
C         26.95652        35.15458        -1.44946
C         28.15758        37.41575        -1.12960
C         26.96223        38.09808        -1.44593
C         28.17126        40.25834        -1.34464
C         26.95000        39.51955        -1.45777
C         28.16042        41.70082        -1.35152
C         26.97716        42.41229        -1.34030
C         28.24696        44.57489        -1.16716
C         26.96846        43.85230        -1.14021
C         28.17595        46.09739        -1.17778
C         27.06244        46.61939        -0.26727
C         28.33883        48.82192        -0.02354
C         27.03818        48.08208         0.04090
C         28.32466        50.31285         0.08705
C         27.03679        51.03153         0.01360
C         28.33634        53.13443         0.20763
C         27.06325        52.42944         0.08884
C         28.31062        54.50948         0.52687
C         27.10562        55.20621         0.74238
C         27.11569        56.52200         1.25486
C         29.32154        12.46722         1.19638
C         30.46782        14.58435         0.60996
C         29.29845        13.86537         1.01088
C         30.42643        15.93719         0.32253
C         29.17887        16.63346         0.35648
C         30.38669        18.84771        -0.00703
C         29.13754        18.04888        -0.11763
C         30.38152        20.25173        -0.03906
C         29.11806        21.00047        -0.28341
C         30.39981        23.14371        -0.18766
C         29.10579        22.45457        -0.03936
C         30.41136        24.64272        -0.02111
C         29.18065        25.32187         0.38511
C         30.43453        27.51554         0.73310
C         29.24514        26.68002         0.82519
C         30.47678        28.93717         0.68911
C         29.32885        29.79013         0.65252
C         30.64159        31.80401         0.07326
C         29.36742        31.13231         0.18270
C         30.63402        33.18809        -0.33512
C         29.43060        33.84765        -0.60707
C         30.62874        36.06321        -0.66859
C         29.37745        35.28404        -0.84508
C         30.48478        37.48014        -0.15036
C         29.33473        38.16911        -0.85133
C         30.65791        40.26372        -1.00753
C         29.38779        39.56085        -1.07939
C         30.72206        41.66096        -1.50520
C         29.42394        42.43807        -1.55952
C         30.72810        44.62576        -1.72857
C         29.41283        43.91696        -1.42771
C         30.71743        46.14213        -1.43645
C         29.50294        46.80955        -0.93738
C         30.80078        48.87588        -0.44915
C         29.54615        48.12717        -0.53449
C         30.77164        50.30326        -0.26197
C         29.59430        51.04417        -0.14207
C         29.55432        52.45063         0.00462
C         31.64949        16.65645        -0.20887
C         32.80531        18.80354         0.37739
C         31.64469        18.13775         0.11334
C         32.80359        20.26225         0.73332
C         31.58507        20.97957         0.20486
C         32.88175        23.07066         0.14667
C         31.65350        22.38736         0.07297
C         32.92758        24.53956        -0.03907
C         31.69394        25.28973         0.35950
C         32.98574        27.50816         0.46929
C         31.70787        26.76121         0.63479
C         32.94737        28.94603         0.76695
C         31.76124        29.64887         0.61353
C         33.15812        31.68831         0.06645
C         31.80132        31.07970         0.37567
C         33.14456        33.19979         0.10811
C         31.98089        33.84191        -0.63727
C         32.92860        36.07215         0.41101
C         31.92116        35.36160        -0.48331
C         32.98076        37.54952         0.07284
C         31.80623        38.22310        -0.21425
C         33.08607        40.34365        -0.49895
C         31.82135        39.62099        -0.57671
C         33.14809        41.71833        -0.74605
C         32.04878        42.43088        -1.49444
C         33.20028        44.62006        -0.96802
C         31.86403        43.88842        -0.97180
C         33.24550        46.00484        -0.98661
C         32.04561        46.84253        -1.12498
C         32.00518        48.19292        -0.56225
C         34.09654        20.98798         0.46574
C         35.39423        23.10174         0.26382
C         34.13440        22.35965         0.29001
C         35.47173        24.47484         0.21832
C         34.23074        25.26469         0.04413
C         35.54137        27.29738         0.97955
C         34.27311        26.75693         0.31464
C         35.49991        28.83142         1.01601
C         34.20576        29.61091         1.21376
C         35.44928        31.75285         1.08144
C         34.31411        31.06154         0.81311
C         35.41524        33.25507         1.23741
C         34.23664        33.91358         0.51915
C         35.44215        36.07970         0.41034
C         34.26125        35.36858         0.41790
C         35.46505        37.50035         0.16500
C         34.25533        38.22656         0.02992
C         35.55009        40.32120        -0.22011
C         34.28937        39.63028        -0.19882
C         35.56799        41.72804        -0.35872
C         34.37872        42.44315        -0.61211
C         34.37971        43.85869        -0.77960
C         36.69765        25.24515         0.12588
C         37.96484        27.32804        -0.07655
C         36.76794        26.60679         0.33216
C         38.36178        28.50756         0.49999
C         36.59986        29.54222         1.36690
C         38.02122        31.66533         0.82520
C         36.71427        31.01716         1.35777
C         37.92889        33.11013         0.46643
C         36.76551        33.91628         0.91341
C         37.92437        36.00101        -0.07815
C         36.74402        35.37830         0.56132
C         37.90843        37.39069        -0.26622
C         36.72616        38.16447        -0.05837
C         36.74870        39.56455        -0.18028
C         39.25486        29.51591        -0.00584
C         40.21339        31.66289        -0.39568
C         39.14976        30.88075         0.20550
C         40.17436        33.01252        -0.52424
C         39.01113        33.77665        -0.12489
C         39.02457        35.18261        -0.36007
O         20.42123        24.34107         2.02899
O         20.58892        13.97542         2.21658
O         21.58469        48.37731         1.08692
O         17.09803        17.19651        -2.18656
O         13.33316        44.63920        -0.59326
O         23.87350        29.51728         1.98096
O         21.63378        11.33269        -1.29326
O         24.69009         9.74531         2.80561
O         16.77507        22.75749        -1.55629
O          8.99898        34.85567        -1.70829
O         28.51616        49.46893         1.29358
O         27.27245        47.05354         1.09443
O         12.77521        29.24395         1.14687
O         22.61139        39.95641        -3.08679
O         23.19698        32.92082         1.33885
O         25.02736        45.99052         0.93261
O         19.05721        52.60250         2.17294
O         22.29239        18.46779         2.96125
O         16.83960        34.82641         0.94676
O         31.77200        25.74509         1.73949
O         19.05220        15.40836        -1.74578
O         17.87720        24.11671         1.56379
O         37.71149        31.52549         2.26913
O         33.59384        24.97952        -1.25756
O         12.79668        37.83382         0.63994
O         23.35649        49.61021        -1.82959
O         16.81994        45.90102         1.39817
O         22.50014        41.85062        -0.03412
O         27.99886        28.36171         2.04561
O         23.43642        11.83547         2.75201
O         28.34135        20.72319        -1.50157
O         13.38383        40.15699        -2.07721
O         30.05068        41.88500        -2.78441
O         23.70148        16.40504         2.90597
O         26.14908        16.99558        -0.57351
O         22.74013        44.39736        -2.45316
O         25.01460        42.37426        -2.75821
O         21.33321        57.45408         0.23131
O         19.00598        31.63859         1.34991
O         15.98510        32.36741        -1.81815
O         27.80908        46.48046        -2.48291
O         15.94937        19.30532        -1.63572
O         31.42505        46.84734        -2.48742
O         37.76184        28.85128         1.72744
O         37.07697        34.93894         1.93951
O         30.43101        24.05261        -1.35215
O         19.79525        39.81263        -2.90943
O         21.09527        50.95912        -1.45480
O         33.72869        27.44593        -0.83797
O         16.60337        29.51281        -1.82549
O         31.62408        36.00511        -1.75981
O         10.51379        32.09055        -2.09317
O         28.37381        18.18840        -1.37189
O         18.51870        46.68243        -1.86198
O          6.97400        33.45940        -1.04102
O         16.52114        30.89734         1.53375
H         17.34473        30.99567         2.06966
O         23.30976        20.71045         3.27095
H         22.71137        20.09312         3.75721
O         18.75386        19.02097        -1.59523
H         18.11818        18.46765        -2.14525
O         33.43507        31.29438        -1.31928
H         32.94884        31.92263        -1.91006
O         27.10955        34.87566        -2.89066
H         26.85784        35.70763        -3.36845
O         19.65706        24.99814        -1.51462
H         20.60164        25.14856        -1.76256
O         12.80063        33.52260         1.02616
H         13.54604        33.22162         1.58855
O         32.66046        20.29856         2.22844
H         32.76680        21.23556         2.50192
O         25.82534        37.21828        -3.34362
H         24.91886        37.09532        -3.70123
O         34.02243        29.65445         2.68219
H         34.64507        30.31844         3.05120
O         25.43631        28.56863        -1.14289
H         26.07867        27.87291        -1.40138
O         32.21988        33.56583        -2.05144
H         31.88096        34.35457        -2.54633
O         16.95953        39.09609        -2.85347
H         17.49154        39.72300        -3.39024
O         19.79520        38.55398         0.52397
H         20.11442        37.72764         0.95166
O         12.20907        46.92442         1.22048
H         11.95665        46.92478         0.27390
O         31.67497        16.49782        -1.64094
H         30.87158        16.92318        -2.00868
O         25.68234        14.64147         3.58710
H         24.96990        15.25004         3.89294
O         31.41913        43.81366         0.40625
H         32.17260        43.51683         0.95900
O          7.51286        37.84036         1.61335
H          7.17154        38.22021         0.77801
O         24.54375        13.62601         0.24160
H         24.66688        14.49100        -0.20621
O         24.52229        52.80459        -1.80654
H         23.83207        52.22274        -2.19378
O         32.56240        42.46462        -2.83812
H         31.81506        42.74179        -3.42194
O         35.15274        33.44668         2.65347
H         35.79954        34.12441         2.96971
O         21.78239        35.96129         0.84340
H         22.36064        35.42433         1.42754
O         14.32750        26.93866        -2.45945
H         15.20091        26.82238        -2.89407
O         24.98190        24.87565        -0.98845
H         25.53956        24.33204        -1.58542
O         12.83634        24.65447        -2.33149
H         13.20657        25.50485        -2.67853
O         24.36526        43.43827         0.69549
H         24.51714        44.27309         1.20711
O         35.47818        26.81769         2.34517
H         36.23132        27.21402         2.83309
O         16.90416        38.70012         0.76261
H         16.99052        37.90466         1.32911
O         32.39581        35.91653         1.75970
H         33.08797        36.18760         2.39805
O         20.88905        35.48233        -2.66299
H         20.19079        35.87987        -3.22487
O          9.91280        37.85215        -1.69829
H          9.33242        37.10313        -1.95616
O         20.75851        31.36154        -1.88474
H         21.39276        31.94239        -2.35483
O         26.91818        30.69109        -1.84740
H         26.19855        30.03401        -2.01073
O         30.95140        44.47980        -3.14246
H         30.33687        45.08817        -3.60653
O         17.15260        17.67794         1.42289
H         16.21985        17.57090         1.73962
O         12.32874        33.83886        -2.57366
H         11.84373        33.08918        -2.99205
O         14.48607        17.95880         1.48376
H         13.67706        17.45510         1.71798
O         30.07955        37.37988         1.24565
H         30.00963        38.28645         1.60996
O         22.28444        24.97973        -1.06401
H         23.26478        25.05400        -1.21722
O         24.63136        57.26704        -0.50547
H         23.73710        57.10576        -0.87770
O         12.55943        24.90793         1.31096
H         11.91579        25.34269         1.90878
O         24.95588        25.22441         2.66636
H         24.38409        24.59999         3.18294
O         23.21053        23.31575         3.10785
H         23.26165        22.38856         3.46264
H          5.22798        31.03140         1.53081
H          5.26100        33.48184         1.71746
H          7.46497        26.74373         0.32761
H          6.25045        28.91825         0.82688
H          6.57654        35.59662         1.56020
H          9.12906        36.79400         2.31856
H          9.88334        22.53724        -0.54893
H          8.67371        24.66244        -0.15656
H          9.28810        39.66172         1.99690
H         10.51739        41.93490         1.90441
H         12.38603        18.23927        -0.45971
H         11.14975        20.35692        -0.55285
H         12.09745        43.67842         2.39681
H         13.48336        45.91660         2.48639
H         15.09416        13.96448        -1.10710
H         13.78448        15.94421        -0.40310
H         13.83167        48.56363         1.34081
H         14.98108        50.68746         1.15109
H         17.84566         9.91076        -1.81795
H         16.48620        11.91498        -1.55400
H         15.98303        52.78734         0.85137
H         17.49897        55.22934         0.79327
H         20.60785         5.67542        -1.99306
H         19.16823         7.73136        -1.84895
H         18.69962        56.99989         2.00775
H         20.08828        58.95224         2.94234
H         24.09875         2.42694        -1.42946
H         22.01057         3.62042        -2.04863
H         23.59646        61.91460         4.16567
H         21.39601        60.85466         3.74198
H         25.86298         3.54137        -0.08252
H         26.76187         5.61317         0.96676
H         26.87915        58.90021         2.47822
H         25.70453        60.83152         3.40068
H         27.74951         7.67303         1.49152
H         28.98594         9.77147         1.24538
H         29.26426        55.04284         0.66064
H         28.07737        56.96994         1.55039
H         30.25831        11.91652         1.02706
H         31.41526        14.03528         0.50267
H         31.73207        50.84097        -0.29911
H         30.49515        53.02232         0.00311
H         32.57952        16.17868         0.18664
H         33.75661        18.25220         0.43047
H         34.21235        46.50997        -0.82898
H         32.95352        48.69952        -0.32730
H         35.03579        20.42741         0.59024
H         36.32208        22.51408         0.34099
H         36.52826        42.26337        -0.32788
H         35.34283        44.39015        -0.73011
H         37.60980        24.71095        -0.18499
H         38.51148        26.94841        -0.95359
H         38.81899        37.89953        -0.61577
H         37.71175        40.08020        -0.30772
H         40.07407        29.17963        -0.66254
H         41.09276        31.11091        -0.75943
H         41.02182        33.54975        -0.97293
H         39.93022        35.62876        -0.79665
