         344
 CSIRO Nanostructure Databank - Neutral Graphene Oxide Data Set
C          1.57741         1.98360        -1.64397
C          1.49254         3.40523        -1.51918
C          2.77080         1.35335        -1.81256
C          2.63844         4.19603        -1.40193
C          1.35748         6.30235        -0.97247
C          1.30758         7.69225        -0.71095
C          2.56782         5.62423        -1.09439
C          2.45126         8.44673        -0.54836
C          1.30205        10.68669        -1.06882
C          1.38675        12.02466        -1.21813
C          2.35063         9.94350        -0.26472
C          2.54472        12.80210        -0.75878
C          1.45799        15.00572        -1.41127
C          1.49998        16.37804        -1.58212
C          2.56646        14.27852        -0.84868
C          2.60156        17.14375        -1.14183
C          2.72753        18.51936        -1.41636
C          4.02531         2.15588        -2.02415
C          3.92407         3.55867        -1.47122
C          5.25648         1.43165        -1.58213
C          5.08742         4.26133        -1.14071
C          3.79422         6.36424        -0.92727
C          3.74687         7.79397        -0.61784
C          5.01868         5.68985        -0.96804
C          4.91594         8.48887        -0.34361
C          3.71136        10.62386        -0.52651
C          3.65174        12.12430        -0.31672
C          4.84210         9.88676         0.22073
C          4.96952        12.85336        -0.20233
C          3.67131        14.98749        -0.41085
C          3.62582        16.48339        -0.26260
C          4.80498        14.29333         0.30541
C          4.98327        17.15133        -0.29200
C          3.89701        19.20636        -1.12475
C          5.06105        18.53942        -0.62462
C          6.35634         2.08512        -1.02477
C          6.32057         3.54493        -0.85375
C          7.50778         1.36399        -0.66314
C          7.43722         4.20997        -0.36827
C          6.28388         6.44449        -0.91922
C          6.25787         7.96128        -0.77746
C          7.53135         5.67736        -0.53264
C          7.42743         8.54217        -0.00652
C          6.14593        10.64230         0.17394
C          6.07738        12.09360         0.56221
C          7.36360         9.95624         0.24652
C          7.37767        12.83085         0.38774
C          6.12892        15.03277         0.21748
C          6.14203        16.42973         0.07570
C          7.36520        14.27735         0.33971
C          7.41552        17.19953         0.39377
C          6.29993        19.22907        -0.58965
C          7.49028        18.59774        -0.18308
C          8.61420         2.00172         0.10619
C          8.65570         3.50230        -0.04418
C          9.94350         1.34346        -0.11183
C          9.81198         4.18600         0.23383
C          8.64550         6.40607         0.07099
C          8.61183         7.80056         0.25287
C          9.68253         5.58809         0.78823
C          9.83263         8.47780         0.67968
C          8.58180        10.68407         0.46829
C          8.57715        12.09081         0.37948
C          9.83033         9.97044         0.91790
C          9.87550        12.79402         0.29194
C          8.57442        14.97559         0.37996
C          8.65342        16.41904        -0.01843
C          9.86467        14.27531         0.36462
C          9.92761        17.12466         0.39667
C          8.73282        19.22979        -0.21608
C          9.95123        18.57187         0.19275
C         11.13556         2.04644        -0.07129
C         11.13719         3.55885        -0.11753
C         12.39517         1.40454        -0.11048
C         12.36592         4.18103         0.50857
C         11.00568         6.32054         0.99906
C         11.01984         7.79842         0.86647
C         12.31375         5.58741         0.95593
C         12.29887         8.49805         0.98323
C         11.10423        10.60344         0.36224
C         11.13455        12.08644         0.59975
C         12.34127         9.88583         0.84761
C         12.31998        12.77375         0.74467
C         11.03633        14.96010         1.02474
C         11.08144        16.43539         0.70983
C         12.34001        14.23140         0.79900
C         12.34407        17.11314         0.83531
C         11.12217        19.26830         0.41117
C         12.30539        18.60361         1.06326
C         13.62228         2.12687         0.00200
C         13.57729         3.55416         0.36035
C         14.84362         1.49877        -0.14557
C         14.82747         4.25656         0.63899
C         13.57097         6.36458         0.97386
C         13.54234         7.76520         1.09569
C         14.79992         5.65298         0.96021
C         14.78468         8.48506         1.19734
C         13.56368        10.61558         0.95945
C         13.57602        12.03739         0.87310
C         14.79218         9.91205         1.14993
C         14.79984        12.73719         0.91484
C         13.51779        14.93682         0.75238
C         13.54048        16.39571         0.81470
C         14.79018        14.18835         0.61576
C         14.80653        17.10048         0.83526
C         13.61488        19.26957         0.79203
C         14.80304        18.56104         0.79422
C         16.11567         2.28663        -0.24434
C         16.05975         3.60800         0.48429
C         17.35081         1.49467         0.05614
C         17.26716         4.25892         0.86212
C         16.01918         6.34568         1.22150
C         16.01053         7.77706         1.33903
C         17.22879         5.60171         1.28737
C         17.22692         8.51523         1.50980
C         16.01846        10.63404         1.25709
C         16.02571        12.06386         1.13814
C         17.22634         9.90549         1.46592
C         17.27711        12.79517         1.23705
C         16.08092        14.95150         0.70753
C         16.02326        16.41991         0.87014
C         17.30982        14.23087         1.09854
C         17.26756        17.11496         1.00919
C         16.05726        19.24299         0.73860
C         17.27702        18.56739         0.88746
C         18.50884         2.09731         0.46780
C         18.53069         3.51751         0.84254
C         19.75405         1.37312         0.45947
C         19.70981         4.11398         1.20722
C         18.45442         6.27067         1.76395
C         18.48735         7.78821         1.82201
C         19.74307         5.52090         1.64803
C         19.77757         8.46757         1.51516
C         18.49289        10.64185         1.80968
C         18.48466        12.09744         1.43049
C         19.75118         9.91997         1.37400
C         19.72901        12.78107         1.41192
C         18.47307        14.96863         1.31963
C         18.45148        16.39942         1.24470
C         19.73836        14.24591         1.75340
C         19.71142        17.15797         1.41857
C         18.50389        19.26716         0.87135
C         19.74648        18.61113         1.07834
C         20.96616         1.98649         0.71073
C         21.01837         3.36329         1.33030
C         22.19324         1.32563         0.45580
C         22.21290         4.17814         0.84568
C         21.02568         6.30060         1.40512
C         20.92834         7.75960         1.24163
C         22.20670         5.57169         0.87390
C         22.04238         8.46639         0.49084
C         20.90067        10.63699         1.12527
C         20.93148        12.08454         1.20271
C         22.21687         9.89624         1.03318
C         22.18315        12.79402         1.02919
C         21.00987        14.93316         1.32312
C         21.00533        16.40560         1.40829
C         22.18897        14.25107         1.10820
C         22.18063        17.14099         0.80740
C         20.94978        19.28831         1.04741
C         22.26877        18.60086         1.30872
C         23.40766         2.02946         0.40141
C         23.41043         3.47408         0.51325
C         24.62668         1.35280         0.13500
C         24.61370         4.18799         0.30202
C         23.39135         6.32092         0.54841
C         23.37257         7.73786         0.49431
C         24.61317         5.61499         0.33234
C         24.57204         8.46195         0.27261
C         23.28434        10.67020         0.25895
C         23.36400        12.11564         0.70890
C         24.58841         9.90989         0.27156
C         24.60881        12.80442         0.58235
C         23.45743        14.98390         0.94867
C         23.46659        16.37056         0.95072
C         24.68437        14.23817         0.73110
C         24.69512        17.15674         0.81326
C         23.41702        19.27368         0.60796
C         24.58218        18.57375         0.36109
C         25.83233         2.04348        -0.00438
C         25.84231         3.48038         0.06798
C         27.06556         1.34828        -0.24661
C         27.05630         4.18736        -0.05709
C         25.82295         6.34474         0.11758
C         25.79654         7.74600         0.09215
C         27.07715         5.62118        -0.02950
C         27.03075         8.48732        -0.36155
C         25.79637        10.62108         0.25006
C         25.79886        12.06759         0.35790
C         27.04377         9.92235         0.08407
C         27.04788        12.76067         0.31362
C         25.89042        14.90789         0.44060
C         25.96944        16.37799         0.47328
C         27.09084        14.19769         0.11617
C         26.96788        17.02717        -0.38901
C         25.68442        19.16003        -0.31023
C         26.81680        18.41461        -0.73481
C         28.26534         2.02166        -0.30210
C         28.29493         3.46396        -0.15682
C         29.52205         1.33631        -0.57743
C         29.51275         4.14169        -0.11404
C         28.30198         6.30540        -0.08476
C         28.33276         7.75580        -0.08585
C         29.54704         5.57464        -0.09701
C         29.52011         8.43225        -0.00388
C         28.24831        10.59638         0.22752
C         28.20970        11.99573         0.47139
C         29.54771         9.91197         0.02767
C         29.76528        12.93847        -0.54976
C         28.16500        14.86577        -0.54506
C         27.99340        16.24774        -0.95076
C         29.30858        14.16348        -1.09075
C         28.87500        16.83071        -1.92508
C         27.75555        19.00143        -1.60895
C         28.75113        18.22313        -2.23862
C         30.70732         1.96463        -0.45574
C         30.78714         3.36095         0.10025
C         32.00898         4.13124        -0.31035
C         30.78157         6.24433        -0.15397
C         30.87304         7.74385        -0.00741
C         31.99298         5.49284        -0.32014
C         31.71753         8.37689        -1.10974
C         30.69751        10.60809        -0.74198
C         30.51921        11.99196        -1.27410
C         31.63594         9.67982        -1.42376
C         31.01815        12.42363        -2.51705
C         29.99350        14.63966        -2.24831
C         29.82427        16.03618        -2.63331
C         30.83430        13.74489        -2.93826
C         30.62302        16.63458        -3.61955
C         29.60500        18.79554        -3.22377
C         30.51548        18.00644        -3.90342
O         15.54494        14.51479        -0.61008
O         18.35548         6.98658         3.03581
O         20.45097        16.88932         2.69461
O         20.65833         5.80183         2.75368
O         11.60125         5.83107         2.25878
O         30.70180        10.48807         0.71426
O          7.24435         6.05831        -1.95343
O         10.08182        13.63574        -0.94267
O         29.40243        12.66371         0.78269
O         25.74060        16.94873         1.80634
O         12.06403        18.75922         2.53097
H         11.15140        18.43960         2.70238
O         21.57418         8.47827        -0.88589
H         22.04862         9.20737        -1.35749
O         31.55173         7.98822         1.25537
H         31.52980         8.96679         1.39838
O          8.66453        16.38815        -1.47858
H          9.26630        15.66474        -1.76225
O          4.14908         2.31592        -3.49933
H          3.34084         2.78371        -3.80069
O          4.04312        10.46966        -1.93552
H          3.29668        10.83450        -2.45828
O         30.91892         3.19525         1.56623
H         30.98233         4.09619         1.95058
O         22.54345        18.61563         2.73023
H         21.80792        18.12855         3.17258
O          4.40961        14.32848         1.71210
H          4.94342        13.64679         2.19461
O         21.90635        17.23235        -0.62588
H         21.90585        16.32412        -0.99515
O          9.88691        10.15068         2.37191
H          9.25541         9.52264         2.78128
O          3.15096        16.70845         1.13021
H          3.52339        15.96952         1.67429
O          4.49960         9.74818         1.64269
H          4.76335        10.59901         2.07865
O          9.10523         5.38923         2.13228
H          9.87617         5.33452         2.74873
O         22.87126        10.75976        -1.15270
H         23.62814        11.12431        -1.65903
O         19.73578        14.28441         3.22694
H         19.91279        15.22637         3.47349
O         21.23798         3.13843         2.75692
H         21.17603         4.02523         3.18987
O         11.28672         3.90477        -1.55283
H         11.94639         3.28633        -1.93395
O         10.74870        14.85712         2.45968
H         11.46932        15.31433         2.94275
O          8.27131         1.80709         1.54770
H          8.50802         2.62825         2.03190
O          1.95542        10.10008         1.11744
H          2.71562         9.77920         1.66573
O         22.72588         9.79654         2.38485
H         22.05481         9.33614         2.93268
O          5.76408        12.11498         2.03734
H          6.60011        11.88896         2.50092
O          6.43663         8.50160        -2.13280
H          7.02727         7.86417        -2.60069
O          7.46220        17.32253         1.84240
H          6.65981        17.80716         2.12896
O         11.05580        10.41709        -1.08418
H         11.67840        11.05052        -1.49874
O         26.93304         8.53930        -1.83834
H         26.85743         7.61302        -2.15359
O         16.23413         2.65318        -1.68306
H         15.43601         3.17556        -1.91272
O          5.45308        12.96779        -1.56715
H          5.41013        12.06636        -1.96595
O         18.54647        10.64405         3.28319
H         19.19212        11.33160         3.55638
H          0.64775         1.39915        -1.57957
H          0.49476         3.85334        -1.42283
H          2.82145         0.25919        -1.91040
H          0.40579         5.76843        -1.09850
H          0.32201         8.17511        -0.64816
H          0.41159        10.15190        -1.43250
H          0.57399        12.55126        -1.73860
H          0.56987        14.46188        -1.75884
H          0.67444        16.88443        -2.10486
H          1.90085        19.04300        -1.91984
H          5.30603         0.34476        -1.75032
H          3.97508        20.27517        -1.37215
H          7.54696         0.28121        -0.85689
H          6.33641        20.26984        -0.94690
H          9.97244         0.24285        -0.14242
H          8.79123        20.28476        -0.52688
H         12.43639         0.30954        -0.21100
H         11.13950        20.36268         0.29259
H         14.87388         0.42629        -0.39188
H         13.63944        20.36877         0.74040
H         17.36313         0.43105        -0.22743
H         16.05897        20.33921         0.64529
H         19.74348         0.33601         0.08895
H         18.49809        20.35348         0.69864
H         22.18258         0.25477         0.20005
H         20.94541        20.37578         0.87484
H         24.61881         0.25555         0.05432
H         23.33021        20.32585         0.29638
H         27.04148         0.25445        -0.36357
H         25.60977        20.21424        -0.61726
H         29.47445         0.28720        -0.90750
H         27.65394        20.06395        -1.87488
H         31.64798         1.43319        -0.66485
H         32.95755         3.58636        -0.42728
H         32.93301         6.04425        -0.46982
H         32.44947         7.74543        -1.63597
H         32.28717        10.08814        -2.21125
H         31.61415        11.74630        -3.14381
H         31.32730        14.06715        -3.86518
H         31.36273        16.03656        -4.16879
H         29.51533        19.86712        -3.45220
H         31.16406        18.45061        -4.67132
