         732
 CSIRO Nanostructure Databank - Neutral Graphene Oxide Data Set
C         23.08814        26.22169        -1.58511
C         22.01230        27.18042        -1.52753
C         22.66309        27.79930         0.78581
C         21.85121        28.00391        -0.46908
C         22.81247        29.08879         1.57541
C         21.64621        29.68080         2.04174
C         22.84167        31.63919         2.83829
C         21.65703        30.92827         2.69125
C         22.83549        33.00255         3.53567
C         21.63326        33.81535         3.15891
C         22.92574        35.90967         3.07793
C         21.69235        35.14660         2.98078
C         22.91966        37.29604         2.74710
C         21.68188        38.01497         2.43857
C         22.87894        40.18842         2.58193
C         21.63969        39.35734         2.33840
C         22.85642        41.58048         1.97503
C         21.66478        42.26458         1.70974
C         22.88721        44.24863         0.98362
C         21.67672        43.55676         1.18926
C         22.91719        45.53554         0.26741
C         21.72668        46.08926        -0.24724
C         22.96834        47.78075        -1.44773
C         21.75681        47.21082        -1.07562
C         25.31975        24.30721        -1.72794
C         25.30569        25.43406        -0.88960
C         24.07093        26.16484        -0.62685
C         25.30282        27.67975         1.01845
C         23.99731        27.10182         0.52690
C         25.31829        29.12139         1.43225
C         24.06775        29.72324         1.81714
C         25.28917        31.70420         2.63742
C         24.05638        31.02159         2.42067
C         25.29403        33.00249         3.29250
C         24.13917        33.78034         3.43214
C         25.33880        36.04704         3.46353
C         24.13974        35.23961         3.42222
C         25.34779        37.39578         2.98532
C         24.12851        38.01638         2.65716
C         25.37341        40.21012         2.31425
C         24.10356        39.41624         2.08148
C         25.34196        41.57267         2.12154
C         24.08852        42.25927         1.81202
C         25.35488        44.36319         1.32655
C         24.08865        43.60412         1.36439
C         25.39270        45.69969         0.59331
C         24.14644        46.16905        -0.04585
C         25.45917        47.84617        -1.34566
C         24.18951        47.27392        -0.94301
C         25.54334        48.83436        -2.32566
C         27.75344        24.12184        -1.57057
C         26.50899        23.66360        -2.05587
C         27.76742        25.26082        -0.69885
C         26.54127        25.90964        -0.34975
C         27.76241        27.26079         1.24799
C         26.55385        26.97779         0.60032
C         27.78779        29.63130         0.73317
C         26.48153        29.92051         1.45335
C         27.79240        31.95006         2.14863
C         26.47795        31.18272         2.10878
C         27.77865        33.06622         3.15976
C         26.58887        33.46400         3.70517
C         27.82431        36.09897         3.56527
C         26.58783        35.55532         3.93545
C         27.83833        37.44329         3.08069
C         26.60014        38.12483         2.88535
C         27.85357        40.22206         2.51851
C         26.60896        39.51255         2.58664
C         27.86800        41.60756         2.25482
C         26.58820        42.39538         2.33520
C         27.83042        44.27293         1.20938
C         26.62375        43.65502         1.50869
C         27.87359        45.55088         0.49418
C         26.70095        46.17744         0.11534
C         27.98423        47.68367        -1.43247
C         26.73283        47.50021        -0.60389
C         27.98900        48.68258        -2.42255
C         26.77596        49.30486        -2.80249
C         30.27848        21.79875        -3.17705
C         29.06039        22.42725        -2.84079
C         30.26379        23.85476        -1.20713
C         28.99305        23.48568        -1.94492
C         30.27379        25.27001        -0.66856
C         29.00873        25.85911        -0.29271
C         30.18981        27.81214         0.71403
C         28.99040        26.96153         0.58218
C         30.15783        29.06410         1.53345
C         29.04663        29.84782         1.54160
C         30.26799        31.75862         2.57685
C         28.95811        31.00163         2.52132
C         30.26922        33.08424         2.95856
C         29.04058        33.73399         3.46881
C         30.32388        36.01593         3.30120
C         29.07048        35.32224         3.65643
C         30.32530        37.41756         3.09166
C         29.08442        38.13277         2.94364
C         30.34127        40.22816         2.58620
C         29.09762        39.51910         2.66790
C         30.35505        41.63270         2.32186
C         29.09100        42.31357         2.08566
C         30.29438        44.43272         1.54182
C         29.06220        43.63507         1.58333
C         30.36405        45.60207         0.63191
C         29.16514        46.10682         0.10985
C         30.44164        47.52179        -1.44360
C         29.20161        47.10887        -0.94512
C         30.53254        48.28782        -2.67475
C         29.22682        48.95304        -3.18403
C         30.60126        50.57689        -4.43607
C         29.41535        50.22753        -3.91209
C         32.81356        20.69453        -4.15210
C         32.74542        21.70292        -3.15933
C         31.51942        22.28225        -2.74826
C         32.77451        23.98995        -1.27055
C         31.51842        23.62513        -2.04641
C         32.76196        25.17495        -0.55230
C         31.47795        25.82987        -0.29520
C         32.72929        27.58807         1.04822
C         31.49613        27.17051         0.32167
C         32.69943        28.79063         1.94605
C         31.37907        29.49290         2.35755
C         32.71362        31.60611         2.65450
C         31.49390        31.00868         2.42435
C         32.79947        33.07548         2.70764
C         31.50406        33.85839         2.87159
C         32.76808        35.98091         3.18073
C         31.53731        35.30043         3.22206
C         32.79084        37.39003         3.08898
C         31.56439        38.10832         2.96310
C         32.80855        40.23062         2.68216
C         31.57039        39.52651         2.74703
C         32.82088        41.63731         2.43849
C         31.58389        42.32712         2.26180
C         32.86202        44.48180         1.67334
C         31.57269        43.78565         2.00163
C         32.86306        45.59579         0.69121
C         31.64072        46.12902         0.24550
C         32.96008        47.66861        -1.28169
C         31.65794        47.39864        -0.56954
C         32.98295        48.56863        -2.40216
C         31.80697        48.87262        -3.09660
C         33.10168        50.37598        -4.65053
C         31.80520        49.64852        -4.39206
C         33.16622        51.28202        -5.71551
C         35.27311        20.63006        -4.06242
C         34.01616        20.15705        -4.55739
C         35.29314        21.64884        -3.06008
C         34.00196        22.06455        -2.46117
C         35.30965        23.76630        -0.97174
C         33.99998        23.18217        -1.44316
C         35.27917        25.12490        -0.35434
C         33.99171        25.81857        -0.11593
C         35.24966        27.65360         0.99018
C         34.01789        27.02098         0.57832
C         35.20734        28.90189         1.73666
C         34.00176        29.47948         2.14931
C         35.27683        31.59185         2.88173
C         33.96359        30.81286         2.77068
C         35.24939        33.07928         2.97708
C         34.06874        33.76490         3.02654
C         35.30163        35.95800         3.17351
C         34.03155        35.21052         3.49601
C         35.27917        37.40323         3.08459
C         34.04445        38.10846         3.04183
C         35.27596        40.23886         2.85271
C         34.04250        39.52034         2.85947
C         35.28830        41.64541         2.54040
C         34.08639        42.31951         2.34118
C         35.38558        44.27412         1.36849
C         34.13429        43.74771         1.94699
C         35.36274        45.47857         0.61372
C         34.12111        46.09746         0.22408
C         35.42639        47.68142        -1.20973
C         34.15940        47.15911        -0.75252
C         35.44761        48.73090        -2.20366
C         34.24397        49.11931        -2.84225
C         35.50352        50.72149        -4.25498
C         34.27495        50.07432        -3.91538
C         35.53154        51.69224        -5.29492
C         34.34816        51.94524        -6.02287
C         37.71516        18.55955        -6.03290
C         36.56248        18.95588        -5.45349
C         37.71045        20.68214        -4.12804
C         36.50205        20.08758        -4.53637
C         37.69907        21.80984        -3.29279
C         36.50290        22.24886        -2.67852
C         37.58969        24.40373        -1.89753
C         36.64943        23.21812        -1.50703
C         37.70919        25.44445        -0.79355
C         36.52980        25.91308        -0.23032
C         37.72999        27.78515         0.82442
C         36.48428        27.11919         0.54664
C         37.70840        28.99102         1.53296
C         36.47009        29.61502         1.93919
C         37.72608        31.77139         2.23260
C         36.48651        30.93174         2.40560
C         37.71684        33.12169         2.90209
C         36.51613        33.79478         3.06824
C         37.76589        35.93690         2.90838
C         36.48479        35.24333         3.12264
C         37.77861        37.43513         2.94462
C         36.49392        38.14458         3.08326
C         37.74020        40.33526         3.36326
C         36.49062        39.54452         3.05833
C         37.75153        41.68913         2.68798
C         36.57505        42.32739         2.36019
C         37.81415        44.29826         1.40708
C         36.59160        43.63967         1.71317
C         37.81905        45.48952         0.67500
C         36.60800        46.05609         0.20959
C         37.89590        47.79842        -1.03320
C         36.63421        47.20084        -0.66719
C         37.90729        48.91872        -1.95408
C         36.67435        49.35458        -2.56063
C         37.90694        51.09529        -3.82802
C         36.70605        50.40446        -3.53862
C         37.95776        52.04906        -4.87859
C         36.77147        52.36640        -5.60626
C         38.01401        53.99823        -6.91383
C         36.82986        53.36118        -6.61038
C         40.30719        17.35564        -6.80172
C         40.27564        18.48309        -5.98406
C         39.00970        19.30055        -5.79814
C         40.26088        20.70936        -4.13016
C         38.99457        19.92472        -4.38754
C         40.24595        21.87568        -3.35134
C         38.96256        22.56288        -3.10881
C         40.22662        24.33869        -1.79415
C         38.94709        23.87974        -2.39496
C         40.21154        25.49544        -0.92379
C         38.97310        26.05856        -0.47013
C         40.22038        27.85495         0.68102
C         38.97720        27.21111         0.36633
C         40.24923        29.03229         1.47190
C         38.98436        29.57524         1.98352
C         40.25608        31.72447         2.60098
C         38.98370        30.98686         2.50982
C         40.25432        33.07934         2.97450
C         38.99103        33.80925         3.03326
C         40.31042        35.92620         2.91838
C         39.01315        35.18609         3.10476
C         40.21903        37.38904         3.32458
C         39.05131        38.13430         3.24969
C         40.24084        40.27530         3.05148
C         39.04408        39.57308         3.20621
C         40.30676        41.65220         2.64981
C         39.04498        42.40353         2.61361
C         40.36373        44.22185         1.37807
C         39.08653        43.77352         1.94051
C         40.32172        45.31483         0.34362
C         39.12270        46.24219         0.55571
C         40.34899        47.93162        -0.79161
C         39.10584        47.31831        -0.50145
C         40.30341        49.22593        -1.48340
C         39.08929        49.61251        -2.19535
C         40.42578        51.29137        -3.56600
C         39.09479        50.94293        -2.91103
C         40.43931        52.24184        -4.62822
C         39.20411        52.67413        -5.24012
C         40.47688        54.27425        -6.65672
C         39.22510        53.65449        -6.25933
C         40.51103        55.32577        -7.59381
C         42.69667        17.14785        -6.49977
C         41.51052        16.67270        -7.03482
C         42.71066        18.30971        -5.69285
C         41.48354        18.96194        -5.40035
C         42.70541        20.71705        -4.10666
C         41.48298        20.12913        -4.53662
C         42.69280        21.89229        -3.30325
C         41.45285        22.49833        -2.94154
C         42.69450        24.11046        -1.43885
C         41.41257        23.69142        -2.12123
C         42.69879        25.55031        -0.99242
C         41.44879        26.11558        -0.57308
C         42.68281        27.99062         0.45659
C         41.45085        27.32374         0.18288
C         42.69555        29.19785         1.21002
C         41.45688        29.73337         1.69776
C         42.69563        31.67883         2.59586
C         41.46093        31.02968         2.31530
C         42.68056        32.91975         3.29460
C         41.48397        33.74381         3.32875
C         42.68591        35.92668         3.72353
C         41.49722        35.16046         3.49388
C         42.73493        37.32069         3.43081
C         41.47800        38.08023         3.53461
C         42.74856        40.20800         2.84577
C         41.50711        39.60015         3.32359
C         42.76450        41.51901         2.38331
C         41.52369        42.26965         2.31770
C         42.82838        44.18146         1.30258
C         41.55052        43.57948         1.68748
C         42.82466        45.46761         0.63050
C         41.62137        46.08361         0.24309
C         42.84733        48.00839        -0.73920
C         41.59543        47.35823        -0.39515
C         42.85026        49.16877        -1.51903
C         41.62260        49.88028        -1.88179
C         42.88937        51.28286        -3.54357
C         41.63388        50.82953        -3.02497
C         42.90791        52.27686        -4.56294
C         41.67909        52.75881        -5.10415
C         42.93576        54.35354        -6.53814
C         41.69830        53.79294        -6.10429
C         42.92287        55.39767        -7.48286
C         41.72193        55.88306        -7.99437
C         45.20128        18.27873        -5.51513
C         43.95684        18.88471        -5.21412
C         45.18588        20.72115        -4.11715
C         43.95172        20.10001        -4.48190
C         45.17883        21.95129        -3.38409
C         43.94616        22.51745        -2.93390
C         45.16834        24.38362        -1.90519
C         43.95310        23.69353        -2.15902
C         45.16874        25.66061        -1.24459
C         43.90300        26.23293        -0.80094
C         45.10104        28.21752         0.08500
C         43.90561        27.49365        -0.09514
C         45.14211        29.38276         0.88700
C         43.92614        29.87411         1.45778
C         45.17999        31.71864         2.53507
C         43.94178        31.07955         2.22703
C         45.16969        32.84829         3.39692
C         43.92101        33.30275         3.85404
C         45.16892        35.93569         3.83382
C         43.92300        35.37329         4.14628
C         45.19037        37.28666         3.39856
C         43.95522        37.98403         3.26505
C         45.26819        40.09482         2.54784
C         43.94081        39.37139         2.74595
C         45.23144        41.56323         2.45686
C         44.03198        42.19850         2.16019
C         45.30955        44.21643         1.40816
C         44.03325        43.56809         1.66352
C         45.30715        45.45795         0.66590
C         44.08091        46.09661         0.30917
C         45.34021        47.90301        -0.78247
C         44.09738        47.34450        -0.38826
C         45.40130        49.21645        -1.44131
C         44.09916        49.86211        -1.87260
C         45.36569        51.29270        -3.46624
C         44.12788        50.82068        -2.98909
C         45.39035        52.31322        -4.47976
C         44.16243        52.81056        -5.01563
C         45.42744        54.34677        -6.42601
C         44.18290        53.84236        -5.99686
C         46.39483        18.87716        -5.16837
C         47.66496        20.78950        -4.19291
C         46.42169        20.12118        -4.49202
C         47.65048        22.02992        -3.50501
C         46.40927        22.60020        -3.07497
C         47.63757        24.50896        -2.09543
C         46.40278        23.83811        -2.37276
C         47.61775        25.80603        -1.48157
C         46.37419        26.37573        -1.09693
C         47.58739        28.42749        -0.22657
C         46.29955        27.84635        -0.73797
C         47.61951        29.55827         0.58157
C         46.38554        30.06377         1.15255
C         47.66305        31.78476         2.37694
C         46.41807        31.17689         2.02119
C         47.73645        32.85433         3.46663
C         46.41284        33.58288         3.75859
C         47.67697        35.87740         3.75846
C         46.40912        35.12240         3.94013
C         47.68387        37.27076         3.56784
C         46.44741        38.00037         3.27013
C         47.77017        39.98183         2.51337
C         46.48013        39.33415         2.91596
C         47.71259        41.49782         2.71221
C         46.46163        42.38549         2.77034
C         47.73753        44.38569         1.60265
C         46.51811        43.67563         1.89829
C         47.77171        45.45858         0.66093
C         46.53968        46.04002         0.24928
C         47.81852        47.81307        -0.93906
C         46.56130        47.24137        -0.52005
C         47.84681        48.97434        -1.76689
C         46.63426        49.63207        -2.12172
C         47.86942        51.22915        -3.50881
C         46.61906        50.72232        -3.00773
C         47.88501        52.31300        -4.42503
C         46.63203        52.83668        -4.94100
C         46.61745        53.85504        -5.91648
C         50.09562        20.91736        -4.37430
C         48.91451        20.24143        -4.59090
C         50.11995        22.17050        -3.71287
C         48.88117        22.71124        -3.21835
C         50.15748        24.49707        -1.97142
C         48.86435        23.92485        -2.49796
C         50.08764        25.98220        -1.69114
C         48.85408        26.55152        -1.37654
C         50.11086        28.64813        -0.55788
C         48.79729        27.94992        -0.90057
C         50.10836        29.72249         0.44450
C         48.87696        30.20738         0.92477
C         50.14040        31.94351         2.19193
C         48.86317        31.32728         1.82488
C         50.15090        33.14202         2.87339
C         48.83464        33.84253         3.03602
C         50.12399        35.85190         3.95342
C         48.90223        35.17192         3.74774
C         50.12372        37.26289         3.94668
C         48.92968        37.94798         3.59432
C         50.15569        40.01311         3.27548
C         48.97319        39.34549         3.20992
C         50.17192        41.35287         2.66596
C         48.91024        42.05703         2.93469
C         50.21899        44.28945         1.49477
C         49.00727        44.05120         2.14635
C         50.24973        45.38263         0.58593
C         49.02473        46.02054         0.25205
C         50.29599        47.78932        -0.91723
C         49.04729        47.20535        -0.55552
C         50.31499        48.96214        -1.72911
C         49.09114        49.52180        -2.19747
C         50.35027        51.22396        -3.46801
C         49.10350        50.66564        -3.05347
C         50.32684        52.33014        -4.34938
C         49.13334        52.84588        -4.82287
C         52.52078        22.53468        -4.27309
C         51.33697        22.91531        -3.57383
C         52.57671        24.77235        -2.57069
C         51.37637        24.08878        -2.76627
C         52.59045        26.03465        -1.83457
C         51.32814        26.68218        -1.49476
C         52.57342        28.54665        -0.44276
C         51.35502        27.92084        -0.82715
C         52.60355        29.67060         0.40060
C         51.36974        30.22964         0.91715
C         52.62180        31.87210         2.31874
C         51.38993        31.31851         1.81937
C         52.65354        33.03468         3.09121
C         51.37963        33.67929         3.47980
C         52.70641        35.70911         4.63680
C         51.37345        35.04951         4.14797
C         52.71022        37.29741         4.39729
C         51.39357        38.01149         4.18572
C         52.69681        40.14481         3.29762
C         51.41847        39.45486         3.75439
C         52.70525        41.38742         2.48976
C         51.40682        42.02110         2.17625
C         52.72850        43.95532         1.09522
C         51.40542        43.39613         1.55065
C         52.74980        45.35065         0.61127
C         51.52252        45.94993         0.21054
C         52.78105        47.83849        -0.69586
C         51.53487        47.19006        -0.48376
C         52.77818        49.16032        -1.36432
C         51.55099        49.60204        -2.05407
C         52.86675        51.16149        -3.42289
C         51.58711        50.68426        -2.94752
C         53.69728        23.22194        -4.11371
C         55.02235        24.96167        -2.92979
C         53.79054        24.32789        -3.21380
C         55.06278        25.83579        -1.69029
C         53.79368        26.65222        -1.57633
C         55.12184        28.64197        -0.60094
C         53.81623        28.00790        -1.01136
C         55.08313        29.66800         0.44894
C         53.87866        30.17874         0.87339
C         55.18311        31.66739         2.52585
C         53.87208        31.12917         2.01479
C         55.15203        32.88803         3.39782
C         53.88047        33.64179         3.55627
C         55.21036        35.38503         4.58951
C         53.92397        34.88944         4.17858
C         55.20938        37.56040         4.33372
C         53.92704        38.07926         3.98437
C         55.13870        39.94008         2.89370
C         53.92555        39.33451         3.34341
C         55.16210        41.25703         2.38474
C         53.91901        41.97135         2.13007
C         55.19392        43.92726         1.28707
C         53.97952        43.28338         1.51379
C         55.23138        45.27618         0.72938
C         53.98880        45.97854         0.38332
C         55.26342        47.96427        -0.47508
C         53.98265        47.26440        -0.23918
C         55.35400        49.04105        -1.47580
C         54.11946        49.76636        -1.82257
C         54.05260        50.67895        -2.96685
C         57.42096        25.26989        -3.41494
C         56.21084        24.68777        -3.66933
C         57.61393        26.22707        -2.31143
C         56.38115        26.59967        -1.49507
C         57.56998        28.62508        -0.68830
C         56.39896        27.93276        -0.86355
C         57.50116        29.98905        -0.02286
C         56.42687        30.00306         1.07938
C         57.65775        31.96813         2.10765
C         56.43702        31.30337         1.84754
C         57.70069        33.08269         2.97498
C         56.48195        33.58592         3.62603
C         57.69083        35.76360         4.47274
C         56.43565        34.96339         4.13146
C         57.64373        37.24817         4.03672
C         56.39832        37.93382         3.75505
C         57.65778        39.91535         2.90551
C         56.39398        39.10135         2.80679
C         57.65442        41.23944         2.41241
C         56.41175        41.90929         2.08670
C         57.68378        43.89660         1.35282
C         56.43548        43.23661         1.58426
C         57.71452        45.22369         0.82185
C         56.46174        45.87205         0.48781
C         57.82285        47.51866        -0.87013
C         56.53670        47.22585        -0.11478
C         57.79917        48.81025        -1.60231
C         56.62308        49.46811        -1.91000
C         59.87018        26.96293        -3.15218
C         58.76635        27.15930        -2.30646
C         59.96060        29.01473        -1.22509
C         58.78943        28.22236        -1.36364
C         60.01730        30.04832        -0.18164
C         58.84352        30.48470         0.46709
C         60.14317        32.08994         1.76406
C         58.89439        31.50073         1.45101
C         60.24779        33.20669         2.74065
C         58.95729        33.73870         3.37798
C         60.11670        35.85802         3.88892
C         58.95476        35.12634         3.89826
C         60.09086        37.28611         4.43170
C         58.82579        37.94507         3.90523
C         60.08771        39.97417         3.20307
C         58.85336        39.29848         3.35575
C         60.11524        41.27745         2.61514
C         58.89520        41.92663         2.25486
C         60.15615        43.87692         1.42422
C         58.91549        43.24172         1.68816
C         60.18142        45.19546         0.82521
C         58.95100        45.88876         0.62336
C         60.29453        47.82453        -0.29451
C         58.97389        47.34569         0.20053
C         60.99476        27.77919        -3.04768
C         61.04946        28.78302        -2.07902
C         61.25604        30.59458         0.20617
C         61.31126        31.60886         1.15005
C         61.35579        34.16118         2.62067
C         61.30421        35.37366         3.22541
C         61.33623        38.07091         4.13466
C         61.31462        39.31122         3.61009
C         61.34020        41.96308         2.36631
C         61.35788        43.20465         1.77707
C         61.39432        45.78726         0.41859
C         61.42780        47.06799        -0.17973
O         41.54450        39.00852         4.66911
O         53.41937        50.23584        -0.61178
O         57.39052        25.68238        -0.95319
O         51.90008        43.16208         0.17162
O         51.15007        33.85089         4.94188
O         49.02879        43.37876         3.37722
O         49.37653        28.95780        -1.80721
O         39.08818        43.64034         3.40340
O         26.58024        34.41152         4.74550
O         44.80888        50.31827        -0.66243
O         27.80888        29.45080        -0.47547
O         40.87538        50.36770        -0.70272
O         50.55295        41.18384         1.25381
O         54.49094        29.01673        -1.88250
O         55.20671        36.57665         5.33751
O         54.51471        30.51475         3.19846
O         29.74845        47.75644        -3.82365
O         43.88351        34.21014         4.92149
O         30.86780        28.15455        -0.56259
O         51.96813        37.88439         5.52612
O         35.34492        23.86930         0.48672
O         34.65460        30.94331         4.05473
O         59.87964        32.83708         4.10060
O         25.29036        45.63740         2.06033
O         30.79452        44.61230         2.92882
O         32.65154        27.42299         2.51922
O         38.91542        29.88499         3.44475
O         32.14785        33.70123         1.54086
O         38.96562        23.86733        -3.86468
O         44.56499        39.45810         1.40800
O         52.12170        40.35350         4.66008
O         55.90096        32.64616         4.62590
O         29.19769        34.37817         4.75512
O         39.05854        18.92282        -3.40263
O         37.83139        36.72988         1.62908
O         33.60181        44.72992         2.92156
O         24.51922        26.72321         1.84838
O         46.45494        34.18972         5.07933
O         33.86357        21.78425        -1.00858
O         56.04368        48.27174         0.75277
O         31.53768        48.50809         0.42071
H         32.12010        48.28798         1.17967
O         23.03545        40.34863         4.01514
H         22.32973        40.94515         4.33940
O         40.52906        35.96100         1.45963
H         39.67804        36.28030         1.06926
O         48.41373        34.23616         1.67861
H         49.10159        34.82099         1.29666
O         31.65208        48.69992        -5.49586
H         30.87967        48.12823        -5.26037
O         56.73795        28.95290         2.03069
H         56.12589        29.06810         2.79371
O         47.93157        39.68394         1.09594
H         47.06090        39.80259         0.65952
O         57.04499        30.95327        -1.01563
H         57.64194        30.89859        -1.79081
O         58.58829        48.18414         1.31654
H         59.29335        48.12979         1.99384
O         56.38644        38.52835         1.43700
H         56.43535        39.28165         0.80977
O         23.94440        39.27737         0.63935
H         24.68976        38.73758         0.30320
O         26.81862        48.51612         0.47051
H         26.87750        49.39371         0.03626
O         28.65782        30.45364         3.82196
H         29.43450        29.90158         4.09151
O         37.64821        40.61090         4.80473
H         38.34817        41.26059         5.03135
O         46.09240        28.53302        -2.03586
H         46.96589        28.59719        -2.48082
O         48.11007        32.17138         4.67026
H         47.86099        32.74871         5.42714
O         36.93099        25.09070        -2.98998
H         37.46291        24.88772        -3.80099
O         57.80378        35.71950         5.92540
H         56.95175        36.06290         6.28299
O         37.82762        32.08854         0.79558
H         37.14964        32.76388         0.57984
O         52.73311        35.54430         6.05848
H         52.19180        36.26494         6.45573
O         50.32934        23.88207        -0.63814
H         50.45942        22.91933        -0.77376
O         28.04896        32.52019         0.84260
H         28.02580        31.80534         0.17000
O         33.99283        35.09780         4.96726
H         34.79723        34.61482         5.25481
O         42.70946        23.33299        -0.17748
H         43.54507        23.54709         0.28984
O         31.44604        24.60485        -3.13006
H         32.20208        24.45803        -3.73576
O         39.07075        20.40885        -6.74119
H         39.10593        20.03629        -7.64668
O         31.11045        29.08195         3.73051
H         31.46376        28.16550         3.82839
O         38.91533        51.95086        -1.85030
H         39.60688        51.75160        -1.17065
O         46.31570        42.83994         4.14600
H         47.13531        43.33471         4.37172
O         30.33929        22.97033        -0.05753
H         29.51927        23.07529         0.46799
O         27.79286        27.81040         2.49290
H         26.88419        27.87880         2.85277
O         26.49934        42.87085         3.73331
H         27.22962        43.51122         3.87575
O         37.29502        22.47845        -0.45795
H         36.80066        22.65838         0.37652
O         21.88542        26.87751         1.60288
H         22.50313        26.52044         2.27965
O         54.97735        24.90322        -0.56148
H         55.90094        24.60592        -0.38279
O         58.06652        46.45643        -1.83120
H         57.64207        46.69633        -2.68069
O         40.11363        44.66653        -0.95116
H         40.89151        44.09833        -1.13347
O         39.35182        46.90026         1.83025
H         38.58243        47.47356         2.02813
O         22.69461        32.71350         4.96936
H         23.53768        32.31918         5.27909
O         60.02822        37.24259         5.87992
H         59.27059        36.65440         6.13681
H         23.18161        25.61296        -2.49534
H         21.35983        27.27365        -2.40765
H         21.04624        28.75301        -0.45470
H         20.68919        29.16393         1.88460
H         20.70561        31.34121         3.05173
H         20.66216        33.30746         3.07694
H         20.76330        35.67403         2.72906
H         20.74725        37.45269         2.31006
H         20.67295        39.84840         2.15364
H         20.69411        41.77693         1.87465
H         20.71448        44.02598         0.94782
H         20.75321        45.64344        -0.00727
H         22.96022        48.64797        -2.12026
H         20.81589        47.63078        -1.45702
H         24.37293        23.90889        -2.11836
H         24.63440        49.22674        -2.80168
H         26.46348        22.78075        -2.70698
H         26.77678        50.06606        -3.59401
H         30.22731        20.89107        -3.79437
H         28.14461        22.03458        -3.30491
H         30.69629        51.54546        -4.94942
H         28.57082        50.93157        -3.95458
H         31.89076        20.34024        -4.63100
H         32.27331        51.47034        -6.32718
H         34.00269        19.37598        -5.32880
H         34.34748        52.65629        -6.85882
H         37.69200        17.70007        -6.72016
H         35.63928        18.40165        -5.67681
H         38.00882        54.76009        -7.70338
H         35.92580        53.64463        -7.16417
H         39.38981        16.97750        -7.27328
H         39.58258        55.73020        -8.01627
H         43.62777        16.61170        -6.72413
H         41.51250        15.77170        -7.66376
H         43.86056        55.85360        -7.82498
H         41.73083        56.70666        -8.72147
H         45.23533        17.31969        -6.04757
H         45.47519        55.13947        -7.18339
H         47.33096        18.37180        -5.43833
H         47.55806        54.27590        -6.29400
H         51.03273        20.45891        -4.71590
H         48.95458        19.27046        -5.10073
H         51.26400        52.80080        -4.67383
H         49.17550        53.70029        -5.51073
H         52.50132        21.67309        -4.95312
H         52.88554        51.87563        -4.25727
H         54.58902        22.87638        -4.65324
H         54.98534        50.96944        -3.47122
H         58.26766        25.04041        -4.07609
H         56.14691        24.00402        -4.52820
H         58.73776        49.17204        -2.04678
H         56.68663        50.36417        -2.54527
H         59.86579        26.15254        -3.89314
H         60.36013        48.85636        -0.66824
H         61.85331        27.61439        -3.71284
H         61.95368        29.40196        -2.00738
H         62.19105        30.22393        -0.23347
H         62.28996        32.01946         1.43105
H         62.22256        33.90769         1.99445
H         62.15911        36.05693         3.12321
H         62.29037        37.65396         4.48931
H         62.26756        39.84547         3.49463
H         62.29806        41.50010         2.63463
H         62.32883        43.68624         1.60301
H         62.34213        45.24692         0.53306
H         62.39388        47.47107        -0.51672
