         720
 CSIRO Nanostructure Databank - Neutral Graphene Oxide Data Set
C         23.31018        27.65811        -2.66955
C         23.25423        28.99391        -2.22786
C         23.54169        31.88367        -2.23375
C         23.48285        33.23179        -2.09903
C         23.34094        36.25010        -1.55052
C         23.29981        37.58499        -1.29201
C         23.03485        40.39009        -0.18815
C         22.98965        41.72130         0.21340
C         22.89334        44.57759         1.11784
C         22.95218        45.92306         1.30880
C         25.85432        24.97098        -2.99161
C         24.69415        25.67230        -3.18012
C         25.41654        27.29241        -1.43883
C         24.44309        26.87723        -2.45458
C         25.26032        28.73365        -0.82609
C         24.28425        29.58927        -1.49946
C         25.40859        31.63965        -0.67297
C         24.41569        31.04466        -1.42671
C         25.31661        33.07750        -0.34380
C         24.22138        33.91819        -1.03542
C         25.39428        35.94532        -0.24973
C         24.33761        35.39281        -0.95884
C         25.33123        37.33671         0.22056
C         24.16897        38.17299        -0.26647
C         25.38323        40.24461         0.46169
C         24.20937        39.64010        -0.04161
C         25.34092        41.61251         0.81648
C         24.13288        42.33566         0.75236
C         25.41643        44.45609         1.49110
C         24.07144        43.72015         1.29772
C         25.39127        45.91952         1.47276
C         24.20653        46.61782         1.49157
C         25.37776        48.77382         1.37978
C         24.23700        48.07929         1.55547
C         28.19718        23.30964        -2.27934
C         28.11628        24.67028        -1.93131
C         26.89335        25.45272        -2.11635
C         27.81528        27.10905        -0.46113
C         26.72650        26.63914        -1.41455
C         27.75391        28.60459        -0.06466
C         26.44503        29.35497        -0.12462
C         27.69688        31.51012         0.46905
C         26.32030        30.84233         0.23686
C         27.74534        33.02332         0.42702
C         26.53066        33.79436         0.08201
C         27.82086        35.91090         0.25503
C         26.56889        35.17347         0.09686
C         27.85900        37.27493         0.45241
C         26.57226        37.98150         0.84769
C         27.83757        40.13116         0.64377
C         26.63350        39.47768         0.60551
C         27.77872        41.62861         0.46417
C         26.63984        42.24780         1.28080
C         27.80447        44.46022         0.76869
C         26.64102        43.74908         1.12553
C         27.83258        45.86292         0.90952
C         26.71233        46.63292         1.56619
C         27.93943        48.78086         1.38159
C         26.66449        48.07366         1.00448
C         28.04455        50.15299         1.65537
C         30.51641        23.18934        -1.52110
C         29.35339        22.57529        -2.03856
C         30.48669        24.59153        -1.26403
C         29.26163        25.30285        -1.37578
C         30.34078        27.35649        -0.59235
C         29.18451        26.65125        -0.90443
C         30.26672        28.76471        -0.21962
C         29.01902        29.40124        -0.00312
C         30.19457        31.52263         0.41348
C         28.98092        30.79160         0.25079
C         30.21256        32.98584         0.45217
C         29.04072        33.69505         0.25623
C         30.39439        35.87156         0.20487
C         29.06205        35.14340         0.03830
C         30.35184        37.31310         0.51824
C         29.12044        37.99822         0.52241
C         30.33860        40.12996         0.65377
C         29.12053        39.43332         0.65158
C         30.37359        41.62282         0.90625
C         29.08164        42.35638         0.63384
C         30.25279        44.41689        -0.08225
C         29.05513        43.71534         0.52754
C         30.29244        45.91420         0.19028
C         29.05840        46.62805         0.63956
C         30.33840        48.81249         0.72091
C         29.21589        47.96820         1.35498
C         30.57141        50.13862         1.50076
C         29.25471        50.82126         1.74870
C         32.84162        20.31822        -0.86776
C         31.71300        21.03039        -1.19137
C         32.90045        23.14945        -0.82699
C         31.71294        22.45309        -1.20267
C         32.89421        24.57720        -0.70161
C         31.66346        25.28294        -0.85143
C         32.82944        27.38667        -0.38379
C         31.61681        26.68435        -0.62102
C         32.77490        28.85550        -0.33692
C         31.46447        29.49503        -0.05128
C         32.67490        31.39263         1.02839
C         31.43050        30.83437         0.35744
C         32.48743        32.88538         1.44251
C         31.45946        33.68681         0.68400
C         32.73286        35.80606         1.09439
C         31.55171        35.07490         0.64032
C         32.82117        37.26377         0.85493
C         31.59101        38.00043         0.69253
C         32.83566        40.13127         0.48386
C         31.59197        39.43256         0.64009
C         32.83023        41.58193         0.27254
C         31.59006        42.32879         0.34869
C         32.76927        44.44488        -0.13674
C         31.57407        43.70756         0.14533
C         32.80549        45.84877        -0.08748
C         31.63106        46.52392         0.59385
C         32.70201        48.75943        -0.04148
C         31.60112        48.02008         0.51171
C         32.81305        50.19426         0.36593
C         31.59044        50.94453         0.72946
C         32.72807        53.04892         0.22180
C         31.62119        52.34575         0.66124
C         35.34959        18.80102        -0.50394
C         35.27214        20.23537        -0.44538
C         34.08410        20.97128        -0.60083
C         35.26606        23.14192        -0.17749
C         34.09833        22.42610        -0.54055
C         35.29117        24.55384        -0.15398
C         34.08790        25.28903        -0.39524
C         35.30241        27.46291        -0.06838
C         34.06799        26.72300        -0.30360
C         35.31869        28.86540         0.06157
C         34.06571        29.61970        -0.16720
C         35.24302        31.70288         0.80076
C         33.98569        31.05052         0.29942
C         34.99892        32.92222         1.61996
C         33.79848        33.60893         1.58888
C         35.70098        36.04715         1.17848
C         33.73637        35.04681         1.69399
C         35.31699        37.23289         0.43681
C         34.03664        37.97038         0.66992
C         35.28114        40.05867         0.02311
C         34.04068        39.37867         0.37811
C         35.23376        41.50977        -0.24944
C         33.98274        42.24953        -0.10292
C         35.27201        44.45259        -0.27010
C         33.99374        43.68870        -0.56961
C         35.25708        45.86766        -0.39548
C         33.99628        46.56549        -0.37479
C         35.24954        48.78608        -0.58104
C         33.98895        48.02938        -0.50209
C         35.26514        50.18872        -0.48097
C         34.06516        50.91766         0.04546
C         35.27009        53.08980        -0.04454
C         33.96054        52.38445        -0.32655
C         35.31359        54.44344         0.30664
C         37.61195        18.79108         0.54635
C         36.45623        18.09659        -0.13160
C         37.77525        20.18696        -0.04927
C         36.56207        21.01830        -0.48895
C         37.75912        23.11918         0.25369
C         36.45856        22.34075         0.30071
C         37.74702        24.55904         0.20606
C         36.52611        25.28553         0.06538
C         37.76047        27.43361         0.17266
C         36.52643        26.71127         0.06219
C         37.77632        28.86108         0.30445
C         36.53856        29.59958         0.37876
C         37.86100        31.64188         1.16627
C         36.54502        30.97715         0.71185
C         37.99031        33.13700         0.86739
C         37.03223        33.97787         1.36674
C         37.96426        35.94895         0.20523
C         36.87647        35.34274         0.93488
C         37.86838        37.29538        -0.10057
C         36.56555        37.95456        -0.16258
C         37.77323        40.13776        -0.15786
C         36.50771        39.42345        -0.17284
C         37.73197        41.56221         0.23605
C         36.51666        42.31049        -0.16805
C         37.70354        44.51954         0.00910
C         36.49109        43.79213        -0.06931
C         37.70182        45.89418        -0.32733
C         36.48815        46.57229        -0.52743
C         37.75245        48.75227        -0.86696
C         36.45666        47.99892        -1.05483
C         37.67956        50.25993        -1.19411
C         36.44762        50.95602        -0.61943
C         37.70765        53.10430        -0.17169
C         36.47803        52.36912        -0.28371
C         37.74220        54.48659         0.16732
C         36.51815        55.13690         0.41839
C         40.11061        15.88758         0.75595
C         38.94825        16.59275         0.66262
C         40.14691        18.71920         0.77832
C         38.93468        18.02767         0.57595
C         40.10714        20.19317         0.99847
C         38.97785        20.93854         0.36199
C         40.22059        23.09465         0.41727
C         38.94902        22.42203         0.37839
C         40.24086        24.54040         0.28407
C         38.98318        25.27348         0.26118
C         40.23495        27.42023         0.41128
C         38.97275        26.68224         0.23597
C         40.27972        28.84762        -0.08251
C         39.03464        29.59068         0.34767
C         40.40414        31.66711         0.83881
C         39.09189        30.92031         0.66329
C         40.40009        33.06504         0.24768
C         39.17920        33.76792         0.29239
C         40.39657        35.83715        -0.30698
C         39.18627        35.17220         0.02958
C         40.35542        37.35722        -0.18459
C         39.04672        38.03480        -0.67255
C         40.23969        40.26848        -0.11711
C         39.01209        39.51271        -0.26442
C         40.26164        41.63338         0.15727
C         39.01087        42.34084         0.45871
C         40.22025        44.65266         0.64320
C         38.95950        43.85192         0.47530
C         40.17771        46.08880         0.19291
C         39.02002        46.56945        -0.66706
C         40.21912        48.86263        -0.69655
C         38.91391        48.08299        -0.65160
C         39.88375        50.20990        -0.15363
C         38.88646        50.96967        -0.65194
C         40.16244        53.05984        -0.45750
C         38.94532        52.40832        -0.42129
C         40.26136        54.43359         0.04507
C         39.02040        55.19350         0.27918
C         40.36137        57.25781         0.49730
C         39.12677        56.54891         0.54735
C         42.59085        15.88019         1.24084
C         41.43639        16.56083         0.56307
C         42.63452        18.70952         1.08911
C         41.38970        18.03720         0.86847
C         42.68723        20.18818         0.80742
C         41.39249        20.94657         1.07787
C         42.68559        22.97947         0.42124
C         41.38488        22.36823         0.66018
C         42.70789        24.46309         0.10312
C         41.45748        25.20668         0.22939
C         42.78361        27.40217         0.14981
C         41.52694        26.66019         0.40220
C         42.81483        28.76792         0.22569
C         41.58606        29.53734         0.25450
C         42.89303        31.61776         0.40229
C         41.62451        30.89322         0.42195
C         42.88976        33.03877         0.15218
C         41.63123        33.73230        -0.02693
C         42.90544        35.85319        -0.59125
C         41.61534        35.13082        -0.34119
C         42.87841        37.36097        -0.61918
C         41.55427        38.13315        -0.75188
C         42.82297        40.23952        -0.02005
C         41.53322        39.50961        -0.10309
C         42.82474        41.73331        -0.04090
C         41.51498        42.44916         0.09192
C         42.92298        44.50624         0.76121
C         41.54135        43.85968         0.67144
C         43.08277        45.96857         0.86599
C         41.16338        46.96778         0.57157
C         42.71244        48.85815        -0.05154
C         41.43286        48.25739        -0.00084
C         42.76990        50.27198        -0.46488
C         41.77750        51.14429        -0.11920
C         42.66396        53.16938        -1.21439
C         41.39439        52.34393        -0.97695
C         42.71158        54.63554        -0.89246
C         41.56636        55.20653        -0.11155
C         42.82212        57.33787         0.09245
C         41.54554        56.66080         0.10705
C         43.70887        16.57503         1.56687
C         45.17088        18.64021         1.67758
C         43.81254        18.00079         1.34609
C         45.20089        20.17404         1.54247
C         43.88971        20.91087         1.37683
C         45.22548        23.06372         0.90145
C         43.89729        22.36878         1.05993
C         45.20847        24.29231         0.10655
C         44.01399        25.16628         0.27915
C         45.27961        27.40154        -0.19948
C         44.06030        26.65642         0.20731
C         45.34848        28.81960         0.02038
C         44.11090        29.43515         0.65848
C         45.40567        31.60051         0.67475
C         44.08246        30.92284         0.50794
C         45.32749        33.07946         0.48091
C         44.15111        33.72036         0.12660
C         45.18748        35.94251         0.58121
C         44.27188        35.15042        -0.37538
C         45.28182        37.42539         0.26605
C         44.09009        38.11958        -0.22954
C         45.33821        40.22524        -0.23569
C         44.10298        39.50818        -0.22167
C         45.26413        41.71704        -0.44965
C         44.15461        42.31922         0.42383
C         45.27526        44.50812        -0.01692
C         44.14733        43.81708         0.30706
C         45.23362        45.97199        -0.37845
C         44.06281        46.69901         0.26093
C         45.21322        48.79702        -0.23042
C         43.99623        48.15226         0.06091
C         45.25585        50.18448        -0.76175
C         43.97150        50.88843        -1.08810
C         45.22684        53.14599        -1.07765
C         43.95585        52.40555        -1.28905
C         45.30622        54.51086        -0.77610
C         44.05279        55.34351        -0.76786
C         43.99779        56.70433        -0.16814
C         47.49990        18.60916         0.73780
C         46.34972        17.97295         1.00719
C         47.62072        20.08628         0.70872
C         46.43005        20.88636         1.09557
C         47.65085        22.93825         0.37024
C         46.44562        22.24013         0.79651
C         47.64657        24.19340        -0.24195
C         46.31594        24.65464        -0.58983
C         47.61798        27.40027        -1.10683
C         46.29615        26.83070        -0.91324
C         47.69851        28.85268        -0.80185
C         46.48336        29.52173        -0.34503
C         47.82087        31.62456        -0.05567
C         46.46269        31.03586        -0.32967
C         47.93261        32.98783         0.59934
C         46.61602        33.79181         0.68945
C         47.86419        36.03549         0.39090
C         46.59776        35.29354         0.69636
C         47.87769        37.38780         0.12247
C         46.61322        38.16293         0.17924
C         47.78855        40.28520        -0.45113
C         46.56227        39.56195        -0.27957
C         47.78252        41.67645        -0.35715
C         46.57479        42.42016        -0.21702
C         47.76154        44.57495         0.09414
C         46.55855        43.81114        -0.07584
C         47.77798        45.97619         0.01068
C         46.54301        46.70901        -0.13839
C         47.75468        48.87869        -0.14161
C         46.48291        48.09517        -0.20956
C         47.77930        50.37212        -0.33965
C         46.49187        50.99768        -0.73914
C         48.22798        53.38711        -0.38383
C         46.40768        52.31348        -1.12676
C         47.73611        54.64266         0.10081
C         46.48582        55.13751        -0.19712
C         50.26674        20.18078         0.89169
C         48.95293        20.82552         0.67660
C         50.16348        23.14007         0.65157
C         48.91089        22.32171         0.80721
C         50.07900        24.46223        -0.03427
C         48.86382        25.00898        -0.43978
C         50.17050        27.21125        -1.01877
C         48.86970        26.43247        -1.01338
C         50.16416        28.78025        -1.05389
C         48.91345        29.52423        -0.79289
C         50.26979        31.58597        -0.32481
C         48.97491        30.91954        -0.33696
C         50.41698        33.04451         0.11213
C         49.06951        33.79250        -0.08715
C         50.40023        35.98769        -0.02880
C         49.12994        35.25591         0.34722
C         50.28537        37.41973        -0.34129
C         49.09057        38.08545        -0.27910
C         50.32991        40.24633        -0.51528
C         49.03473        39.51061        -0.82236
C         50.31810        41.76738        -0.57857
C         49.04893        42.37410        -0.03825
C         50.30840        44.61647         0.56016
C         49.01949        43.83090         0.31720
C         50.27250        46.03487         0.03347
C         49.06755        46.67692        -0.05634
C         50.30823        48.89680        -0.53356
C         49.02707        48.12381        -0.40933
C         50.27621        50.37148        -0.40304
C         49.11108        51.08581        -0.39319
C         50.28529        52.83501         0.95493
C         49.18422        52.49506         0.05840
C         51.39882        20.90564         0.94981
C         52.75214        23.04564         0.43334
C         51.46353        22.38276         0.80632
C         52.68744        24.40137        -0.20383
C         51.37759        25.10634        -0.40509
C         52.63937        27.26979        -0.61191
C         51.42231        26.56793        -0.61217
C         52.64019        28.72495        -0.75515
C         51.44797        29.45092        -0.79494
C         52.65424        31.62769        -0.92297
C         51.41272        30.88910        -0.63992
C         52.68740        33.10204        -0.88284
C         51.56627        33.77794        -0.56104
C         52.82523        35.95288        -0.85590
C         51.44395        35.24743        -0.88100
C         52.80101        37.34444        -0.70761
C         51.49914        38.08830        -0.95326
C         52.77612        40.24200        -0.26515
C         51.49203        39.55665        -0.55786
C         52.82057        41.71527        -0.06444
C         51.55740        42.49369        -0.08780
C         52.84011        44.56572         0.43374
C         51.56380        43.82837         0.18264
C         52.83424        46.06829         0.27457
C         51.58773        46.67841        -0.40079
C         52.78115        48.89724        -0.34178
C         51.59630        48.19500        -0.33539
C         52.82096        50.33549        -0.27804
C         51.56331        51.16668        -0.31702
C         51.44623        52.15984         0.82895
C         55.15815        23.05516         0.01733
C         54.01868        22.32308         0.18857
C         55.15953        24.48857         0.01189
C         53.94616        25.19655        -0.15248
C         55.19418        27.34098        -0.49749
C         53.88661        26.58703        -0.36014
C         55.04942        28.80066        -0.18747
C         53.89430        29.43632        -0.52985
C         55.17575        31.67751        -0.63445
C         53.93783        30.88570        -0.81323
C         55.19835        33.01446        -1.00689
C         53.93481        33.75310        -1.45386
C         55.23479        35.98161        -1.67654
C         54.01042        35.24103        -1.13079
C         55.25404        37.44246        -1.24809
C         54.10507        38.08058        -0.50076
C         55.15369        40.40888        -1.19513
C         53.97312        39.56413        -0.85092
C         55.22355        41.80771        -0.70488
C         54.10480        42.44210        -0.22198
C         55.41560        44.61834        -0.07191
C         54.14918        43.83262         0.27823
C         55.39334        46.08859        -0.17540
C         54.15831        46.86948         0.26126
C         55.35057        48.94710        -0.40007
C         54.07416        48.14096        -0.58617
C         55.27686        50.32877        -0.28250
C         54.03264        51.00302        -0.25004
C         57.53957        24.58980         0.87368
C         56.49907        25.20377        -0.02526
C         57.42414        27.44012         0.70244
C         56.35652        26.68428         0.19002
C         57.42073        28.87297         0.68124
C         56.13041        29.60856         0.47859
C         57.51652        31.66559         0.12881
C         56.31291        30.99196        -0.09864
C         57.68817        33.02678        -0.41931
C         56.50660        33.70954        -1.07055
C         57.83835        35.90231        -0.91704
C         56.59207        35.18641        -1.38295
C         58.09117        37.20822        -1.36761
C         56.23815        38.23953        -1.73035
C         57.77287        40.33186        -1.29456
C         56.41779        39.69348        -1.55470
C         57.75118        41.76871        -0.92539
C         56.50353        42.49045        -0.79193
C         57.74520        44.59246        -1.15940
C         56.50359        43.88009        -0.70600
C         57.82390        46.04062        -0.70536
C         56.55640        46.78131        -0.46310
C         57.82173        48.90668        -0.74791
C         56.58178        48.22706        -0.49374
C         58.53757        25.33376         1.40421
C         59.69697        27.52140         1.63975
C         58.57853        26.76766         1.24356
C         59.71590        28.90411         1.50124
C         58.56803        29.60710         1.03907
C         59.58315        31.88644         1.43683
C         58.58354        31.05167         0.84741
C         59.62136        33.24116         1.23395
C         58.82156        33.86582         0.17704
C         59.80339        36.15959         0.49147
C         58.78523        35.33565        -0.02893
C         59.87719        37.51596         0.19255
C         59.00840        38.09979        -0.75976
C         60.14180        40.28926        -0.63109
C         59.00226        39.55432        -0.96381
C         60.15756        41.69183        -0.53697
C         58.96909        42.43605        -0.65122
C         59.59926        44.75301         0.30222
C         58.90994        43.88977        -0.49021
C         59.02524        46.11296         0.24105
C         59.05420        46.79953        -1.15795
C         58.96463        48.26170        -1.12872
O         57.30131        37.65539        -2.43562
O         42.18436        39.65956         1.18737
O         50.95174        35.34076        -2.21270
O         24.77572        27.56227        -0.14161
O         29.50852        46.66560        -0.78766
O         32.80011        30.63020         2.22093
O         42.99956        36.56167        -1.88128
O         45.88290        38.06329         1.45106
O         48.98976        42.77103         1.36291
O         43.23313        55.38498        -2.00780
O         34.61669        32.00221        -0.57267
O         36.01429        41.87200        -1.47406
O         42.21037        42.34462        -1.20826
O         54.13487        40.05061        -2.21252
O         40.89249        27.14412         1.66977
O         44.41775        20.68030         2.69645
O         49.58512        48.39141        -1.74847
O         46.64376        34.55574         1.96625
O         47.57562        52.94679        -1.54831
O         34.87649        35.67118         2.23307
O         40.62010        20.64353         2.28556
O         38.85533        20.32939        -1.01813
O         42.27008        43.88211         1.93184
O         42.05945        46.58280         1.58616
O         55.12533        44.10950         1.30681
O         52.31659        23.01579         1.83697
O         43.25567        52.84603        -2.50509
O         58.94022        33.17896        -1.12689
O         57.18417        40.23921        -2.67359
O         42.81966        23.46799        -0.96252
O         44.15600        25.94429         1.51012
O         44.47223        23.14606         2.14828
O         47.71807        49.76211         1.02932
O         41.28913        54.47845         1.13144
O         33.48286        29.44779        -1.50237
O         48.25516        20.49051        -0.56958
O         53.32111        31.11794        -2.13230
O         40.78927        50.74268         0.78054
O         50.14297        35.59207         1.34945
O         24.05159        33.38362         0.31517
O         52.89574        40.75041         1.10213
O         32.98441        48.52629        -1.47785
O         49.46114        23.02277         1.95401
O         36.06971        33.50880         2.26332
O         33.83931        50.49444         1.43841
O         44.64310        50.16735        -2.14956
O         52.69486        45.46334         1.57942
O         38.22700        41.79550         1.58403
O         26.87807        28.69819         1.11255
O         29.85524        35.56686        -1.12730
O         27.67788        32.28101         1.70610
O         24.12712        37.50207         1.05518
O         46.12593        25.62451        -1.57490
O         50.27563        27.97738        -2.26009
O         24.69352        43.82688         2.62211
O         52.05474        24.37256        -1.52614
O         48.21913        26.74032        -2.26743
O         39.37489        44.37485         1.79918
O         35.61915        37.21489        -0.99033
O         56.82777        34.20950        -2.42883
O         55.09583        36.01392        -3.10571
H         55.16768        35.08163        -3.42628
O         48.94020        39.39181        -2.27597
H         49.24555        40.24514        -2.65876
O         48.30792        32.70776         1.97520
H         48.00292        33.48024         2.51240
O         26.45480        37.80191         2.28527
H         25.49239        37.81614         2.49419
O         27.59962        26.33692         0.75709
H         26.91554        26.82764         1.27394
O         41.71318        16.46493        -0.90457
H         40.91037        16.79116        -1.36562
O         57.86021        44.52171        -2.60624
H         57.77451        43.57914        -2.86749
O         40.58381        31.86532         2.28102
H         39.68462        31.94085         2.68977
O         44.37462        41.93527         1.78855
H         43.68724        42.37435         2.33988
O         44.87760        41.95145        -1.83009
H         45.61493        41.67245        -2.41141
O         26.67593        47.93037        -0.44931
H         26.79839        48.81913        -0.84435
O         48.79167        33.81167        -1.50155
H         49.51938        34.34713        -1.95203
O         26.83386        41.96454         2.68546
H         26.06859        42.36091         3.16281
O         31.94340        32.84980         2.79129
H         32.13375        31.91610         3.10443
O         31.79596        46.16525         2.01319
H         31.07873        46.63997         2.51733
O         27.01462        46.77454         2.98401
H         26.96711        45.88836         3.40053
O         37.59909        50.36599        -2.63290
H         37.00462        49.64568        -2.94942
O         54.42899        38.04776         0.92461
H         53.77276        38.59775         1.40756
O         53.83959        33.68701        -2.90430
H         52.95494        34.04419        -3.14704
O         44.96868        35.05457        -1.63234
H         44.46055        35.56790        -2.30396
O         29.90806        49.27091        -0.58627
H         29.80636        48.46892        -1.15482
O         55.51832        27.28390        -1.95249
H         54.75208        27.65996        -2.44005
O         45.37195        18.34186         3.08999
H         44.85864        19.01672         3.59315
O         57.00459        25.03928        -1.40200
H         56.52990        25.70679        -1.95835
O         54.40007        47.31219         1.61265
H         54.14329        46.56630         2.20530
O         55.60279        29.84009         1.85162
H         56.32058        30.25769         2.37468
O         37.22393        19.01224         1.93491
H         37.15348        18.14117         2.37771
O         40.99407        51.78615        -2.24583
H         41.79041        51.75607        -2.82866
O         51.67881        51.95959        -1.54156
H         50.84600        52.46881        -1.64373
O         40.42677        37.57789         1.24700
H         39.69544        37.08781         1.67826
O         27.39989        41.86674        -0.93174
H         28.20893        41.81775        -1.48383
O         33.94499        43.61640        -2.04217
H         34.68536        43.01817        -2.30940
O         54.05384        47.72022        -1.97458
H         53.91860        48.51361        -2.53339
O         31.17438        49.83129         2.80032
H         32.14553        49.97896         2.73922
O         44.21241        29.15224         2.08646
H         44.94819        29.71321         2.43367
O         40.24034        28.73664        -1.53850
H         40.15391        29.63739        -1.91516
O         36.21550        21.98376         1.68635
H         36.18516        22.80523         2.21947
O         50.82935        33.00045         1.49744
H         50.04003        32.72968         2.03176
O         30.54682        41.71912         2.36882
H         30.52483        42.66784         2.61693
O         30.02265        44.25257        -1.51490
H         29.53285        45.05447        -1.81520
O         42.90469        20.31115        -0.63349
H         42.23063        19.77297        -1.10053
O         38.87820        37.94990        -2.10077
H         39.65859        38.38859        -2.51964
O         36.29171        47.87577        -2.52173
H         35.36408        47.59977        -2.69401
O         51.70396        46.30643        -1.80961
H         51.04321        46.84961        -2.29923
O         59.90217        46.27470        -2.13221
H         59.46177        45.49109        -2.53998
O         45.91442        31.30091         2.00974
H         45.63156        32.01756         2.61665
O         50.24164        42.03316        -2.02563
H         51.06508        41.69811        -2.44341
O         50.36360        44.78878         2.00173
H         50.11535        43.92405         2.40275
O         39.31825        46.21765        -2.05954
H         38.53820        46.47452        -2.59933
O         46.01955        31.50060        -1.63386
H         46.77438        31.44808        -2.25761
O         41.39689        38.42962        -2.15834
H         41.78341        37.67196        -2.66039
O         25.60830        30.87419         1.48995
H         26.12746        30.34509         2.13448
O         29.61111        47.62970         2.71551
H         29.90123        48.46215         3.16234
O         33.81312        52.36306        -1.78755
H         33.83396        53.28886        -2.10850
O         51.35778        38.00890        -2.40065
H         51.14198        37.03987        -2.59421
O         36.72552        21.37040        -1.88114
H         37.66108        21.15910        -2.12153
O         40.55293        49.00679        -2.10331
H         40.46321        48.11822        -2.51398
O         37.88597        31.52537         2.63938
H         37.76496        30.57889         2.86876
O         44.52846        35.85566         1.85370
H         44.99709        36.46194         2.46982
O         45.04099        45.98804        -1.82819
H         44.98649        46.92624        -2.11171
H         22.52128        27.28765        -3.33969
H         22.42250        29.60976        -2.59461
H         22.95366        31.41287        -3.03328
H         22.90084        33.82710        -2.81757
H         22.63029        35.81497        -2.26776
H         22.60855        38.23610        -1.84585
H         22.12646        39.91190        -0.57907
H         22.04498        42.27460         0.13099
H         21.94091        44.11741         0.81895
H         22.03833        46.52690         1.20809
H         26.02070        24.04539        -3.55845
H         23.93676        25.31577        -3.89292
H         25.35066        49.87358         1.39629
H         23.28812        48.60462         1.74235
H         27.32388        22.79431        -2.70132
H         27.12429        50.74440         1.78188
H         29.35564        21.50426        -2.28169
H         29.25177        51.89137         2.00034
H         32.79342        19.22122        -0.86560
H         30.78995        20.48378        -1.42540
H         32.65337        54.14423         0.16152
H         30.74205        52.91658         0.99559
H         34.47228        18.23600        -0.85513
H         34.38053        54.99133         0.49562
H         36.44224        16.99940        -0.21008
H         36.49431        56.19841         0.69765
H         40.08660        14.79229         0.85362
H         37.98902        16.05578         0.71477
H         40.35319        58.33386         0.72442
H         38.22331        57.13460         0.76750
H         42.54133        14.79253         1.39792
H         42.84117        58.39096         0.41141
H         44.56641        16.05793         2.02130
H         44.92204        57.29197        -0.08195
H         48.35232        18.04250         0.33360
H         46.30782        16.87783         0.90691
H         48.38319        55.24736         0.75417
H         46.30734        56.14245         0.20977
H         50.30630        19.08690         0.99686
H         50.16393        53.66095         1.67135
H         52.35241        20.39369         1.14478
H         52.31962        52.39156         1.45487
H         56.11700        22.53213        -0.10592
H         54.05646        21.22651         0.23808
H         56.19174        50.93077        -0.19068
H         54.03235        52.10079        -0.19840
H         57.54141        23.49952         1.01486
H         57.81980        50.00584        -0.76121
H         59.34134        24.85379         1.98296
H         60.58024        27.00125         2.03761
H         60.62531        29.45907         1.76891
H         60.27452        31.44353         2.16812
H         60.29223        33.86152         1.84397
H         60.54443        35.73371         1.18083
H         60.62687        38.13170         0.70748
H         61.08341        39.75457        -0.44256
H         61.10379        42.20876        -0.32775
H         60.46155        44.49718         0.93198
H         59.02350        46.75945         1.13194
H         59.83724        48.84003        -1.46439
