         618
 CSIRO Nanostructure Databank - Neutral Graphene Oxide Data Set
C         24.03666        69.96224        -3.89759
C         24.14008        71.35404        -4.11530
C         23.18694        72.05659        -4.90479
C         24.37356        74.14150        -4.55241
C         23.31383        73.42873        -5.11333
C         26.04477        65.69469        -2.52731
C         26.01741        67.11238        -2.45598
C         24.92505        67.85172        -2.98088
C         26.06522        69.99311        -2.51807
C         24.99682        69.26779        -3.12219
C         26.19194        71.39207        -2.72185
C         25.23166        72.07540        -3.53792
C         26.43168        74.18538        -3.17422
C         25.34832        73.48196        -3.75448
C         28.45265        61.41488        -1.87303
C         28.33986        62.80844        -1.73302
C         27.24962        63.54093        -2.20825
C         28.32622        65.70878        -1.68270
C         27.17711        64.97698        -2.10841
C         28.32479        67.11918        -1.59361
C         27.14177        67.81329        -1.92012
C         28.29381        69.97889        -1.33191
C         26.98821        69.26569        -1.57474
C         28.18157        71.46905        -1.13884
C         27.26093        72.12887        -2.13831
C         28.51851        74.23949        -1.85111
C         27.38395        73.52261        -2.37316
C         30.80443        57.16901        -1.14232
C         30.77811        58.56902        -1.05718
C         29.65209        59.30830        -1.51734
C         30.72057        61.41882        -0.82924
C         29.58614        60.69936        -1.39882
C         30.69039        62.80924        -0.73237
C         29.38294        63.53938        -0.91827
C         30.77845        65.70440        -0.98041
C         29.55893        64.95526        -1.40935
C         30.68514        67.16677        -0.81052
C         29.51088        67.84108        -1.13599
C         30.64235        70.00325        -0.56624
C         29.45268        69.29136        -1.02609
C         30.60822        71.45865        -0.55228
C         29.51283        72.15821        -0.99583
C         30.79554        74.29991        -0.94444
C         29.57882        73.59443        -1.22630
C         33.09439        52.85750        -0.51208
C         33.03016        54.24531        -0.28255
C         31.90476        55.00722        -0.70446
C         32.98745        57.11376        -0.01728
C         31.89103        56.42165        -0.62138
C         33.01088        58.51930         0.02024
C         31.90166        59.26816        -0.48745
C         32.98501        61.37728         0.19052
C         31.87982        60.68529        -0.39266
C         32.97144        62.81984         0.22717
C         31.83844        63.53851        -0.27576
C         33.01124        65.69154         0.07110
C         31.86938        64.96224        -0.31655
C         33.02417        67.14109         0.00573
C         31.84672        67.86333        -0.32250
C         32.98048        70.01671         0.39333
C         31.79285        69.29411        -0.21653
C         33.07077        71.43699        -0.19504
C         31.78118        72.21747         0.02643
C         33.13485        74.32048        -0.17395
C         31.91227        73.65288        -0.43519
C         35.48753        48.57494        -0.33129
C         35.39129        49.95490         0.07595
C         34.29471        50.71193        -0.35355
C         35.33299        52.76377         0.50922
C         34.21949        52.10548        -0.10724
C         35.28846        54.18068         0.69785
C         34.14192        54.90241         0.34023
C         35.28430        57.05203         1.05841
C         33.98447        56.32976         0.79271
C         35.29598        58.45376         1.04854
C         34.14493        59.21295         0.58700
C         35.23019        61.32337         1.29748
C         34.10525        60.61859         0.65496
C         35.20197        62.84698         1.35286
C         34.09428        63.56608         0.68160
C         35.39979        65.69480         0.74791
C         34.15186        64.96973         0.54164
C         35.44344        67.11521         0.47866
C         34.27238        67.83886         0.23030
C         35.46549        70.02030         0.36642
C         34.29944        69.28768         0.21890
C         35.45450        71.47217         0.46030
C         34.30300        72.18593         0.25405
C         35.49143        74.33210         0.58343
C         34.30531        73.63998         0.22390
C         37.88463        44.26708        -0.56901
C         37.80990        45.63573        -0.24774
C         36.66796        46.42152        -0.47201
C         37.55169        48.22903         1.02949
C         36.56276        47.76831        -0.01776
C         37.54723        49.74326         1.34085
C         36.43608        50.58512         0.82953
C         37.62007        52.71093         1.43156
C         36.45039        51.99400         0.96941
C         37.62801        54.09781         1.49782
C         36.44139        54.87776         1.24304
C         37.55455        56.93932         2.20088
C         36.42416        56.27100         1.43783
C         37.60327        58.43220         1.97691
C         36.50202        59.16943         1.47286
C         37.64963        61.31580         2.11687
C         36.49236        60.59096         1.46444
C         37.74681        62.84837         1.84550
C         36.47394        63.61562         1.57289
C         37.89589        65.68058         1.04004
C         36.54580        65.02197         1.12596
C         37.90189        67.16622         1.15370
C         36.74198        67.81634         0.52321
C         37.92173        70.00039         1.07436
C         36.77194        69.33124         0.44052
C         37.80926        71.43823         1.31867
C         36.78395        72.18973         0.50334
C         37.87972        74.32292         1.21616
C         36.69961        73.65849         0.85239
C         40.39566        40.01595        -0.91475
C         40.33726        41.39389        -0.54964
C         39.12572        42.15405        -0.68246
C         40.06162        44.05521         0.67400
C         39.02628        43.48106        -0.27608
C         40.23921        45.54531         0.53378
C         39.04820        46.31838         0.20053
C         40.11071        48.25549         1.55201
C         38.95758        47.72893         0.71787
C         40.13078        49.77015         1.52139
C         38.82547        50.44554         1.76977
C         40.14517        52.61323         1.65598
C         38.82478        51.95750         1.98093
C         40.12689        54.05189         2.00682
C         38.94470        54.84676         1.48947
C         40.10292        56.89831         2.26847
C         38.91342        56.26140         2.01457
C         40.12773        58.34940         2.55986
C         38.81544        59.11597         2.45519
C         40.12462        60.90630         1.50849
C         38.91523        60.50898         1.98009
C         40.25018        63.05052         1.32201
C         39.01929        63.59630         1.63165
C         40.23469        65.68713         1.94906
C         39.03219        65.01272         1.76239
C         40.17182        67.15773         2.24130
C         39.02720        67.85320         1.52541
C         40.27114        69.99975         1.86413
C         39.04526        69.30379         1.50564
C         40.30193        71.40461         1.86290
C         39.05505        72.17851         1.74662
C         40.32807        74.27612         1.59971
C         39.10265        73.63806         1.49720
C         42.90226        35.76966        -1.19581
C         42.85274        37.15263        -1.10095
C         41.63688        37.87110        -0.96551
C         42.86517        40.04089        -0.84253
C         41.59472        39.28075        -0.91497
C         42.79662        41.43689        -0.26958
C         41.48286        42.01432         0.00533
C         42.70790        44.06780         0.89598
C         41.39430        43.30599         0.68153
C         42.71268        45.53307         0.91200
C         41.43451        46.23011         0.88368
C         42.67620        48.39118         1.36256
C         41.41065        47.60727         1.14973
C         42.50215        49.77205         0.71714
C         41.27645        50.47585         1.28341
C         42.66642        52.52031         1.77325
C         41.30149        51.92585         1.46214
C         42.67683        54.03588         1.88595
C         41.41991        54.76265         2.17032
C         42.59969        56.92886         2.19614
C         41.40740        56.24459         2.16305
C         42.66278        58.37700         2.32091
C         41.40945        59.08234         2.36594
C         42.55897        61.31158         2.13376
C         41.38763        60.40892         1.96777
C         42.66422        62.78778         1.87324
C         41.49371        63.60165         1.70499
C         42.72165        65.65586         2.21807
C         41.48047        64.98837         2.03308
C         42.71365        67.11788         2.23602
C         41.50519        67.84289         2.08983
C         42.74882        69.95318         2.09447
C         41.50768        69.25758         2.02202
C         42.75637        71.38555         2.03066
C         41.53764        72.10836         1.91590
C         42.77241        74.21946         1.86957
C         41.54920        73.54881         1.81765
C         45.32805        32.91137        -1.46991
C         44.12740        33.62430        -1.42559
C         45.38155        35.71388        -1.38319
C         44.13320        35.03710        -1.36110
C         45.40582        37.18486        -1.34066
C         44.09602        37.95774        -1.41356
C         45.26759        39.88516        -0.20121
C         44.13874        39.29432        -0.69501
C         45.28199        41.30209         0.19513
C         44.02979        42.04925         0.26843
C         45.22022        44.12222         0.93689
C         43.98810        43.35914         0.67172
C         45.18785        45.57283         0.68155
C         43.91294        46.26572         0.79460
C         45.01533        48.44299         0.38233
C         43.89900        47.69413         0.81906
C         44.98069        49.85511         0.23370
C         43.79182        50.57736         0.66388
C         44.97437        52.75884         0.64512
C         43.77410        51.93515         0.90032
C         45.06548        54.10843         1.26650
C         43.83287        54.73495         1.81879
C         45.13980        56.88851         2.16505
C         43.84616        56.23776         1.70030
C         45.14591        58.36731         2.21263
C         43.85018        59.08737         2.19222
C         45.13688        61.30921         2.17700
C         43.88037        60.55253         2.33965
C         45.14540        62.70010         2.18292
C         43.89230        63.45021         2.10420
C         45.18844        65.57872         2.29312
C         43.92776        64.89725         2.19411
C         45.19157        67.04320         2.67599
C         43.94300        67.81131         2.31805
C         45.23293        69.92702         2.28365
C         43.97187        69.22328         2.24507
C         45.22653        71.36468         2.18023
C         43.99488        72.08437         2.07379
C         45.23098        74.20467         1.96026
C         43.99989        73.51437         1.99213
C         46.55047        33.57153        -1.36737
C         47.83103        35.65679        -0.96614
C         46.59767        34.98609        -1.27131
C         47.87204        37.00517        -0.61296
C         46.64073        37.82439        -0.78276
C         47.79705        39.76854         0.29624
C         46.47817        39.01751         0.13569
C         47.77411        41.25773         0.43298
C         46.47303        41.95606         0.42985
C         47.71127        44.16889         0.31541
C         46.53142        43.39579         0.75029
C         47.61746        45.55276         0.13905
C         46.34434        46.23903         0.32417
C         47.43646        48.38801        -0.49965
C         46.20558        47.66498        -0.06993
C         47.42960        49.87449        -0.54809
C         46.15376        50.60107        -0.29301
C         47.46582        52.90094         0.21105
C         46.20610        52.14798         0.03650
C         47.64600        53.90432         1.33827
C         46.38771        54.69684         1.65916
C         47.68922        56.94893         1.72595
C         46.44216        56.16430         1.95619
C         47.67497        58.33116         1.77476
C         46.35999        59.09973         1.69331
C         47.67964        61.26833         2.07545
C         46.38949        60.52442         2.22261
C         47.61210        62.73867         1.98831
C         46.41846        63.42631         2.13148
C         47.65321        65.62825         2.22003
C         46.41342        64.89037         2.20952
C         47.67060        67.04019         2.24827
C         46.46657        67.77235         2.32951
C         47.72062        69.90028         2.22960
C         46.45792        69.19622         2.30574
C         47.69790        71.36358         2.32106
C         46.43767        72.09042         2.17894
C         47.67481        74.20494         1.72293
C         46.45003        73.51003         2.01038
C         49.06985        37.71276        -0.35086
C         50.22745        39.88608        -0.14530
C         49.06988        39.10797        -0.09900
C         50.21524        41.32190        -0.06745
C         48.99042        42.03241         0.13958
C         50.12436        44.16892        -0.23803
C         48.93623        43.44070         0.05337
C         50.06546        45.58330        -0.42802
C         48.79332        46.29434        -0.31284
C         49.87709        48.36789        -1.16075
C         48.72223        47.65561        -0.58053
C         49.85082        49.87315        -1.24948
C         48.50827        50.46918        -1.14343
C         49.94719        52.85225        -0.05654
C         48.60581        52.54257        -0.47639
C         50.05778        54.06162         0.77861
C         48.83764        54.82600         1.09730
C         50.12044        56.94624         1.13050
C         48.89764        56.19301         1.37582
C         50.12569        58.39972         1.24660
C         48.89762        59.11287         1.60055
C         50.10974        61.30753         1.49702
C         48.87707        60.50341         1.64222
C         49.89928        62.71776         0.94757
C         48.91596        63.44089         1.86520
C         50.14274        65.66630         1.57687
C         48.94466        64.92087         2.04929
C         50.16720        67.04912         1.72492
C         49.00930        67.75280         2.40149
C         50.13115        69.94286         1.71397
C         48.93716        69.23359         2.10403
C         50.11421        71.31743         1.50080
C         48.99660        72.12682         1.95293
C         50.02762        74.17571         1.00008
C         48.87377        73.53937         1.53924
C         51.39645        42.05881        -0.27037
C         52.56862        44.20799        -0.56632
C         51.37751        43.47366        -0.35454
C         52.53341        45.60979        -0.72598
C         51.25806        46.27058        -0.69706
C         52.42856        48.48479        -1.00570
C         51.21587        47.67685        -1.10138
C         52.35397        49.92120        -0.54674
C         51.09704        50.70435        -0.95474
C         52.38230        52.76754        -0.32966
C         51.09995        52.12842        -0.43274
C         52.48514        54.14583         0.00324
C         51.38506        54.81790         0.70479
C         52.47967        56.99079         0.34639
C         51.31474        56.28502         0.76352
C         52.43266        58.49283         0.22286
C         51.28004        59.11916         0.95525
C         52.55665        61.34441         0.73630
C         51.37760        60.56433         1.18588
C         52.51914        62.75699         0.69437
C         51.20452        63.53112         0.53091
C         52.48485        65.64504         0.89620
C         51.29099        64.94929         1.10123
C         52.53568        67.06237         1.05419
C         51.34948        67.78294         1.40288
C         52.54201        69.91605         1.08076
C         51.35251        69.20790         1.39074
C         52.53495        71.34045         0.86611
C         51.17359        71.95480         0.63904
C         52.34032        74.10027         0.22761
C         51.17394        73.45837         0.68150
C         53.70168        46.37793        -0.96827
C         54.86704        48.56532        -1.13837
C         53.67030        47.80383        -1.01849
C         54.82941        49.98423        -1.16817
C         53.61072        50.68391        -0.87762
C         54.80025        52.81835        -0.96753
C         53.59514        52.07915        -0.75298
C         54.84137        54.22501        -0.74151
C         53.65466        54.89646        -0.24734
C         54.83396        57.10066        -0.52322
C         53.63243        56.31024        -0.06089
C         54.99105        58.42875         0.19488
C         53.74947        59.16796         0.58210
C         54.98843        61.34312         0.43846
C         53.77891        60.65212         0.58768
C         54.97229        62.76680         0.44279
C         53.72596        63.45928         0.53028
C         54.98672        65.65173         0.52184
C         53.67471        64.94831         0.25878
C         55.00108        67.05258         0.70155
C         53.76016        67.77690         0.87280
C         54.99465        69.92707         0.81314
C         53.76957        69.19256         0.91894
C         54.97493        71.35861         0.78168
C         53.70570        72.07021         0.65685
C         54.63901        74.22308        -0.42225
C         53.59418        73.46558         0.18491
C         55.99857        50.72754        -1.44326
C         57.18152        52.88339        -1.61574
C         56.00318        52.13793        -1.36089
C         57.22360        54.27588        -1.39171
C         56.04477        54.92564        -0.90785
C         57.30658        57.11698        -0.86755
C         56.13526        56.32013        -0.36051
C         57.33765        58.52102        -0.62229
C         56.21647        59.18072        -0.07292
C         57.44230        61.35825        -0.16134
C         56.30549        60.58501         0.45459
C         57.43941        62.79224         0.04773
C         56.21103        63.49322         0.33626
C         57.44076        65.64673         0.50412
C         56.20667        64.93009         0.43805
C         57.45324        67.03960         0.67398
C         56.23604        67.76726         0.75873
C         57.44940        69.94314         0.76588
C         56.23892        69.21576         0.81016
C         57.45946        71.35902         0.78625
C         56.21307        72.03042         0.87822
C         57.09675        74.52053        -0.85591
C         55.99626        74.07788        -0.11452
C         58.40245        55.04334        -1.61546
C         59.61444        57.20961        -1.66569
C         58.43669        56.44570        -1.39566
C         59.67917        58.57257        -1.40235
C         58.54496        59.26124        -0.89026
C         59.72117        61.44474        -1.15118
C         58.53627        60.68658        -0.70129
C         59.81127        62.88771        -0.67981
C         58.65443        63.48611         0.00196
C         60.02314        65.62859         0.28111
C         58.71457        64.88577         0.44531
C         59.90295        67.09851         0.07849
C         58.74976        67.76611         0.76790
C         59.98727        70.05006         0.37845
C         58.75415        69.26542         0.79043
C         59.86035        71.50387         0.05716
C         58.67693        72.10049         0.52524
C         59.53338        74.23048        -1.34819
C         58.42393        74.10749        -0.54355
C         61.01689        59.24927        -1.60672
C         62.12936        61.47100        -1.72164
C         60.99118        60.75596        -1.48290
C         62.25177        62.88426        -1.42115
C         61.17616        63.47529        -0.59833
C         62.35796        65.70453        -0.82072
C         61.27380        64.95084        -0.20839
C         62.27361        67.18861        -1.07505
C         61.04837        67.86513        -0.47655
C         62.25283        70.05980        -0.83181
C         61.17333        69.31954        -0.16368
C         62.15431        71.48485        -0.96193
C         60.92748        72.19461        -0.61877
C         61.91655        74.18139        -1.69614
C         60.79702        73.53885        -1.15591
C         63.38505        63.62436        -1.68045
C         64.56234        65.82948        -1.85067
C         63.44887        65.04577        -1.41838
C         64.69629        67.20571        -1.52700
C         63.59153        67.88239        -0.71181
C         64.60923        70.03711        -1.46446
C         63.47598        69.36370        -1.05630
C         64.48072        71.42942        -2.00459
C         63.26731        72.17046        -1.49063
C         64.33934        74.29176        -2.17591
C         63.20156        73.57308        -1.76354
C         65.79914        67.95543        -1.88043
C         67.08494        70.13494        -1.95250
C         65.95031        69.35453        -1.34905
C         67.03643        71.50715        -2.11197
C         65.76254        72.21058        -1.80239
C         66.88271        74.38399        -2.50134
C         65.67384        73.72719        -2.01728
C         68.16472        72.29163        -2.48106
C         68.06499        73.68227        -2.66255
O         37.98685        71.82428         2.70629
O         59.60958        65.18799         1.59426
O         37.90921        49.87331         2.76404
O         47.90674        40.36947         1.63222
O         58.62211        73.47020         0.70914
O         34.80073        62.07612         2.52581
O         47.19926        60.75880         3.39784
O         46.47611        47.85282        -1.51264
O         45.86768        51.63527        -1.27710
O         42.94987        41.18306        -1.74235
O         51.04736        61.04103         2.56576
O         54.53011        58.49697         1.60676
O         56.24478        73.39683         1.10158
O         44.79841        54.01993        -0.19002
O         58.98325        68.46641         2.01161
O         43.10511        61.04665         3.47587
O         48.60112        71.89835         3.33954
O         59.88462        67.52830        -1.33638
O         51.13055        63.76981        -0.87125
O         46.01705        43.71960         2.09777
O         40.23715        61.90084         0.54571
O         61.10360        69.70405         1.26140
O         39.36081        58.73008         3.76436
O         46.36417        37.92379        -2.21194
O         50.42613        47.79008        -2.37931
O         49.35319        63.98357         3.13827
O         46.49275        55.14427         3.03982
O         40.63296        54.28530         3.34783
O         65.81741        73.05893        -0.66287
O         37.01087        63.52935         2.93278
O         50.67290        50.45364        -2.31225
O         50.99728        54.05471         1.89322
O         41.99278        43.39334         2.02323
O         48.44623        51.77369        -1.63667
O         30.60950        65.21193        -2.38528
O         39.30464        47.53847        -0.65600
O         59.44311        62.54997        -2.07346
O         37.08829        68.51155        -0.73896
O         61.65237        63.87032         0.71036
O         45.21689        57.57927         3.44879
O         37.23364        56.77244         3.62322
H         37.87946        57.32564         4.12497
O         39.86716        47.87243         2.93975
H         40.59621        48.26032         3.47341
O         62.16617        67.37984        -2.51537
H         61.23286        67.18510        -2.76031
O         47.95975        53.11683         2.51784
H         47.86661        53.72089         3.29133
O         38.27652        65.43486        -0.38693
H         37.91929        66.17890        -0.92185
O         37.30361        72.13202        -0.86718
H         36.68446        72.62862        -1.44301
O         26.27476        69.27989        -0.25056
H         26.73239        68.63157         0.32799
O         52.26558        58.79196        -1.21777
H         51.36606        58.50511        -1.48487
O         37.34202        61.16618         3.53362
H         36.58352        61.76979         3.72642
O         66.25269        69.23380         0.10104
H         66.40078        70.14070         0.44744
O         46.17524        38.42388         1.42858
H         46.51331        39.05294         2.10929
O         53.44816        65.05131        -1.18511
H         52.55549        64.59541        -1.32655
O         39.46715        43.89076         1.99976
H         40.21941        43.84716         2.63686
O         42.84447        48.59245         2.80057
H         43.17164        47.75252         3.18654
O         52.25594        49.82972         0.92320
H         53.12554        49.53167         1.26568
O         42.19098        49.49229        -0.67495
H         42.30576        50.31347        -1.19731
O         61.58644        58.86422        -2.86649
H         61.00402        59.19789        -3.57945
O         46.09707        59.22949         0.25869
H         46.85934        59.68695        -0.15650
O         56.64315        60.41741         1.88554
H         55.97634        59.78676         2.25276
O         43.83209        56.52085         0.25400
H         43.94731        55.67636        -0.24340
O         54.65796        57.39635        -1.92810
H         53.81572        57.90707        -2.01765
O         33.34942        56.21871         2.13214
H         32.51356        55.71802         2.01497
O         43.90708        38.31853        -2.81298
H         44.78877        38.59549        -3.15351
O         45.19060        67.02278         4.16317
H         45.93758        66.45230         4.44804
O         39.84558        67.25339         3.67152
H         39.87842        68.20099         3.92318
O         37.12863        47.54122         2.22768
H         37.65578        47.91589         2.97260
O         63.86096        67.72896         0.68435
H         64.72769        68.16989         0.85818
O         49.13924        62.48813        -0.26136
H         49.68645        62.95109        -0.97289
O         42.95510        52.03408         3.12273
H         42.28026        52.42456         3.72189
O         33.19531        71.30211        -1.63611
H         34.00222        70.77595        -1.82196
O         56.33260        56.17378         1.08197
H         57.15992        55.66842         1.22592
O         39.24731        54.97373         0.04804
H         38.48241        55.41088        -0.38367
O         50.81536        71.62197        -0.75441
H         50.89554        70.64846        -0.85072
O         31.52528        72.31590         1.46554
H         30.64417        72.73158         1.58153
O         28.82220        63.69199         0.42971
H         28.64306        62.79458         0.78206
O         32.79238        70.04069         1.82949
H         32.16185        70.77250         2.04150
O         27.51795        71.67078         0.17007
H         26.79868        70.98907         0.22181
O         49.31554        67.66988         3.83710
H         48.71166        68.28154         4.30955
O         64.33657        71.31678        -3.46888
H         63.56350        70.73961        -3.64618
O         38.73453        52.16517         3.42440
H         38.11959        51.47667         3.76928
H         24.46098        75.22439        -4.72084
H         26.53339        75.26585        -3.35380
H         28.59292        75.31740        -2.05963
H         30.85742        75.36624        -1.21172
H         33.17942        75.41220        -0.31218
H         35.45573        75.42791         0.68361
H         37.87714        75.42340         1.26190
H         40.38995        75.36573         1.45837
H         42.79499        75.31609         1.78639
H         45.23414        75.29788         1.83999
H         47.61276        75.27566         1.47694
H         50.01523        75.26715         0.85819
H         52.29528        75.17701         0.00351
H         54.34160        75.02021        -1.12051
H         56.92147        75.04278        -1.80619
H         59.47023        74.89546        -2.22252
H         61.80563        75.21521        -2.05603
H         64.23191        75.32080        -2.54951
H         66.81994        75.43543        -2.81680
H         23.20501        69.40326        -4.35195
H         22.34724        71.50434        -5.35033
H         22.56918        73.95601        -5.72614
H         25.17569        65.15879        -2.93586
H         24.07308        67.31292        -3.42035
H         27.65507        60.85810        -2.38821
H         26.41764        63.01044        -2.69632
H         29.95458        56.63678        -1.59408
H         28.80501        58.76382        -1.96037
H         32.25425        52.34970        -1.00760
H         31.05729        54.49017        -1.17721
H         34.70285        48.18891        -1.00014
H         33.48032        50.21896        -0.90425
H         37.02661        43.78786        -1.06527
H         35.80857        45.97620        -0.99711
H         39.44917        39.49450        -1.12169
H         38.29122        41.70359        -1.24098
H         41.97065        35.19148        -1.09443
H         40.69113        37.30898        -0.92013
H         45.30594        31.81471        -1.53776
H         43.16729        33.08926        -1.43707
H         47.48709        32.99764        -1.32497
H         48.75310        35.05808        -0.91458
H         50.03356        37.19062        -0.45189
H         51.18626        39.39449        -0.36969
H         52.35050        41.52745        -0.40064
H         53.52819        43.67528        -0.63366
H         54.67353        45.86687        -1.03032
H         55.82930        48.04796        -1.25888
H         56.92737        50.19709        -1.69938
H         58.08784        52.35936        -1.95283
H         59.30178        54.54100        -2.00005
H         60.50268        56.70086        -2.06734
H         61.71808        58.85288        -0.81967
H         63.02760        60.94076        -2.07337
H         64.22736        63.15600        -2.21166
H         65.39442        65.32563        -2.36668
H         66.57247        67.53843        -2.54420
H         68.04741        69.61502        -2.07974
H         69.12143        71.78676        -2.67424
H         68.95679        74.22662        -3.00571
