         261
 CSIRO Nanostructure Databank - Neutral Graphene Oxide Data Set
C        -11.22813         0.60633         0.42584
C         -9.97429         1.37310         0.80396
C         -8.79971         0.75686         0.01326
C         -7.54923         1.54493        -0.02023
C         -6.26730         0.88983        -0.41974
C         -4.98524         1.57247        -0.07069
C         -3.69940         0.80061        -0.19238
C         -2.48121         1.46412         0.38101
C         -1.20006         0.72262         0.46011
C          0.11505         1.43815         0.25681
C          1.23951         0.73716        -0.46620
C          2.52058         1.47005        -0.74361
C          3.81980         0.69463        -0.89160
C          5.10557         1.47652        -0.96379
C          6.35684         0.80763        -1.48910
C          7.65150         1.59649        -1.31213
C          8.82520         0.73378        -1.06344
C         10.03478         1.73089         0.51721
C         10.50865         0.79862         1.54544
C         -9.97645         2.86623         0.51232
C         -8.79442         3.60664         0.52500
C         -7.56345         2.80438         0.84157
C         -6.24835         3.53139         1.17286
C         -4.94877         2.86707         0.71142
C         -3.67535         3.63874         0.58532
C         -2.46842         2.91838         0.05532
C         -1.19094         3.66091         0.00611
C          0.09917         2.92815         0.20484
C          1.30979         3.66529        -0.26065
C          2.59948         2.88878        -0.22387
C          3.87839         3.64681        -0.26801
C          5.07594         3.00368        -0.93102
C          6.33598         3.82184        -1.12519
C          7.67633         3.09522        -1.11367
C          8.90707         3.77544        -0.41782
C          9.42810         2.92262         0.75271
C         -8.66013         5.00007         0.27243
C         -7.46998         5.76125         0.51210
C         -6.27875         5.11890         1.24786
C         -4.95543         5.83348         0.80733
C         -3.79377         5.08955         0.24116
C         -2.54989         5.80931        -0.20624
C         -1.29914         5.12287         0.41138
C          0.01074         5.89077         0.27813
C          1.27153         5.15258        -0.11525
C          2.55447         5.91628         0.00062
C          3.85265         5.14319        -0.08212
C          5.08580         5.92027        -0.31187
C          6.33794         5.34341        -0.92306
C          7.52061         5.91379        -0.17463
C          8.63396         5.18405         0.07196
C         -7.42756         7.13823         0.30758
C         -6.30504         8.00782         0.87980
C         -4.95000         7.31747         0.61625
C         -3.85481         8.03365        -0.17626
C         -2.57115         7.28707        -0.67958
C         -1.21369         8.09817        -0.52223
C         -0.01726         7.35537         0.03382
C          1.17137         8.09233        -0.56095
C          2.50784         7.37683        -0.34872
C          3.76867         8.12047        -0.71148
C          5.10384         7.36610        -0.75906
C          6.26624         8.05900        -0.07212
C          7.39592         7.32555         0.18265
C         -6.24595         9.49600         0.59246
C         -5.08128        10.17024         0.52290
C         -3.81766         9.51953         0.06384
C         -2.50072        10.16208         0.21895
C         -1.29303         9.49380         0.07228
C         -0.03228        10.12411         0.30610
C          1.21624         9.50534         0.01223
C          2.44154        10.13197         0.19791
C          3.72373         9.56914        -0.28050
C          5.00451        10.18138         0.14265
C          6.15288         9.46918         0.25741
C        -11.19211        -0.72203         0.16845
C         -9.96279        -1.51178         0.05815
C         -8.64451        -0.77583         0.18660
C         -7.58417        -1.34680        -0.78207
C         -6.29329        -0.55833        -0.90134
C         -4.98814        -1.32059        -1.02139
C         -3.70140        -0.63871        -0.60050
C         -2.54382        -1.44913        -0.10078
C         -1.27593        -0.76826         0.32919
C         -0.03208        -1.49379        -0.10361
C          1.19085        -0.76266        -0.55752
C          2.46204        -1.50074        -0.94260
C          3.72724        -0.76520        -1.33324
C          5.03348        -1.54858        -1.74809
C          6.34675        -0.71839        -1.57867
C          7.56010        -1.42339        -1.00152
C          8.80336        -0.61176        -1.01923
C         10.09694        -1.55422         0.58383
C         10.55421        -0.56551         1.56438
C         -9.96319        -2.86047        -0.09118
C         -8.74388        -3.71367        -0.42615
C         -7.59408        -2.83970        -0.98958
C         -6.29814        -3.57206        -1.32002
C         -4.98277        -2.83101        -1.22333
C         -3.69594        -3.59455        -0.95977
C         -2.46320        -2.89890        -0.46355
C         -1.31868        -3.66142         0.17340
C          0.00460        -2.95143         0.22789
C          1.25699        -3.69952        -0.12484
C          2.45413        -3.00253        -0.72066
C          3.78314        -3.72663        -0.75151
C          5.04861        -3.03787        -1.23446
C          6.39999        -3.72129        -1.01323
C          7.56202        -2.87018        -0.58234
C          8.88533        -3.59814        -0.19847
C          9.61040        -2.78483         0.87961
C         -8.23556        -4.57242         0.73901
C         -7.80034        -5.82102         0.63021
C         -6.25913        -5.11479        -1.31725
C         -5.16001        -5.71920        -0.47265
C         -3.85240        -4.99845        -0.44929
C         -2.62908        -5.85997        -0.21516
C         -1.35020        -5.15240         0.05587
C         -0.01672        -5.87029         0.06848
C          1.28513        -5.14191         0.30976
C          2.64504        -5.86155         0.45867
C          3.87930        -5.06215        -0.03659
C          5.12893        -5.83346        -0.29332
C          6.42475        -5.18831        -0.70181
C          7.56071        -5.75917         0.09428
C          8.65145        -5.00507         0.33021
C         -7.56798        -7.12941         0.69140
C         -6.26844        -7.85346         0.51093
C         -5.07008        -7.18217        -0.08958
C         -3.96744        -8.07545        -0.77843
C         -2.60650        -7.19854        -0.94114
C         -1.28843        -8.02300        -0.67706
C         -0.02544        -7.22058        -0.61291
C          1.35205        -8.08775         0.45947
C          2.55319        -7.30006        -0.06537
C          3.79219        -8.05087        -0.40298
C          5.10760        -7.33014        -0.32787
C          6.29183        -8.01427         0.26725
C          7.42601        -7.12732         0.79347
C         -6.24013        -9.33677         0.51606
C         -5.07702       -10.01617         0.37359
C         -3.81069        -9.37765         0.00771
C         -2.62278       -10.02917         0.16590
C         -1.30353        -9.47797        -0.22465
C         -0.04819       -10.14920         0.13871
C          1.23804        -9.55379         0.02009
C          2.43370       -10.21300        -0.20356
C          3.81821        -9.57928        -0.37255
C          4.87017       -10.03555         0.63206
C          6.00630        -9.35006         0.86743
O         -4.42291         6.73572         1.84290
O          6.69726        -4.72214        -2.03978
O         -6.91116        -5.77017        -2.09719
O         -2.60706        -3.28330        -1.86466
O         -0.71887         8.34585        -1.91684
O          0.42979         2.23205         1.44510
O          4.76028         5.54730         1.02657
O          0.46572        -5.60155         1.41159
O         -5.61555        -0.68080        -2.16283
O          2.72779        -1.07664        -2.32035
O         -5.13413        -7.33793         1.33130
O         -8.07407        -1.91498        -2.01524
O         -4.23165         8.92008        -1.25773
O          5.45723         7.18442        -2.18120
O         -8.46675         1.46306        -1.18330
O          6.45093         0.11928        -2.75781
O          2.58687         6.91707         1.04355
O          4.88198        -5.17948         1.01484
O         -2.15445        -5.78906         1.13500
O          4.24207        -3.85531        -2.12950
O          7.94912         2.53930        -2.42158
O          0.76438         8.15613        -1.95609
O         -3.43096         5.12657        -1.15811
O          6.13185        -7.91687        -1.18403
O          2.91450        -7.52106        -1.45433
O         -1.87154         3.27052        -1.21672
O         -4.02818         3.02234         1.84369
O          5.44286         3.51252        -2.23605
O          3.63224         9.13653        -1.71155
O         -0.71593        -3.25301         1.43734
O         -2.19058        -1.31589         1.30949
O          3.41435         3.00563         0.96716
O         -7.63757         2.34759         2.25795
O          1.13028         4.50993        -1.42862
O         -5.59868         1.78847        -1.37094
O          7.16784        -1.85694         0.38591
O         -6.48968         5.45595         2.62572
O         -1.18991        -9.05049        -1.67808
O         10.05982        -1.20051        -0.78088
O          0.15547        -1.19630        -1.51614
O         10.08844         1.32618        -0.83953
O         -5.58886        -3.15493        -2.51267
O         -3.33926         0.39689        -1.55371
O          0.09990         6.87555         1.37778
O          6.33572         5.98100        -2.25791
O          1.47553        -3.66794        -1.57806
O          1.05181        -7.91972         1.68740
O         -4.39868        -8.40412        -2.03564
O         -8.13225        -0.90102         1.48356
O         -4.77449        -4.90785         0.67936
O         -1.92702         1.13889         1.66805
O          4.67694         0.83912         0.28396
O          1.53697         1.32824        -1.78267
O         -2.53901        -6.84180        -2.30938
H         -3.17333        -7.47460        -2.76938
O         -1.59047         5.04633         1.82747
H         -1.18698         5.82359         2.27885
O          8.66063        -7.83965         0.70860
H          8.80532        -8.08187        -0.22978
O         -9.70604         1.10407         2.18931
H         -9.14839         0.26894         2.23422
O         -9.15422        -4.60117        -1.47314
H         -9.22970        -4.08523        -2.30304
O          0.52005        -7.10047        -1.86187
H          0.16177        -7.81683        -2.43726
O         -6.36781         3.01587         2.56587
H         -6.40974         4.63406         3.17303
O          9.65925        -3.68944        -1.40362
H         10.51771        -4.11108        -1.19696
O         -2.73822         7.15483        -2.09443
H         -3.05256         8.01687        -2.44820
O          2.85905        -5.98918         1.87383
H          2.08998        -6.50123         2.23874
O          4.27005       -10.02328        -1.67405
H          3.95327        -9.37513        -2.33929
O         -6.57785         8.05247         2.29989
H         -6.30168         7.18753         2.70177
O          4.96535        -1.68353        -3.16708
H          4.20272        -2.26608        -3.38501
O          9.93794         3.91557        -1.40346
H          9.76145         3.25710        -2.11605
H         10.85811        -1.01242         2.52617
H         10.78466         1.29335         2.49197
H          9.33695         3.30845         1.77869
H          9.48521         5.67198         0.57220
H          8.26228         7.80994         0.65885
H          7.05794         9.96888         0.63485
H          4.98997        11.24125         0.43763
H          2.46718        11.12962         0.66451
H         -0.02847        11.15845         0.68393
H         -2.48602        11.19682         0.59621
H         -5.08537        11.27148         0.54674
H         -7.17217        10.05436         0.79729
H         -8.31871         7.63208        -0.11459
H         -9.55349         5.55296        -0.06115
H        -10.90966         3.34264         0.16938
H        -12.19891         1.12252         0.47920
H        -12.13858        -1.25692        -0.01100
H        -10.92563        -3.39646        -0.12321
H         -8.16337        -4.07112         1.72181
H         -8.43841        -7.78351         0.89076
H         -7.17287        -9.87691         0.73646
H         -5.07166       -11.10990         0.50122
H         -2.61604       -11.01079         0.66658
H         -0.12151       -11.19547         0.47952
H          2.37764       -11.24861        -0.57980
H          4.72334       -11.01248         1.11676
H          6.75169        -9.75529         1.56888
H          7.23962        -6.93396         1.88405
H          9.46461        -5.43938         0.93505
H          9.58406        -3.14265         1.91903
