         286
 CSIRO Nanostructure Databank - Neutral Graphene Oxide Data Set
C        -11.19213         0.59369        -0.62929
C        -10.01784         1.41639        -0.12332
C         -8.75176         0.58839        -0.25289
C         -7.45111         1.27801        -0.44662
C         -6.27120         0.64805         0.21526
C         -4.97036         1.40526         0.10238
C         -3.75268         0.67672         0.64413
C         -2.58108         1.36598         0.54870
C         -1.30619         0.66372         0.26710
C         -0.02484         1.43478         0.30327
C          1.27026         0.70656         0.28914
C          2.46866         1.37524         0.30165
C          3.72545         0.65240         0.47219
C          4.86965         1.44311         1.12619
C          6.22581         0.70938         1.10758
C          7.51326         1.56205         1.12718
C          8.82804         0.80040         0.81070
C         10.02024         1.57328         0.30534
C         11.24239         0.82774        -0.11536
C         -9.85426         2.84306        -0.62964
C         -8.66773         3.49467        -0.76090
C         -7.33245         2.76132        -0.87960
C         -6.15517         3.54486        -0.22918
C         -5.20239         2.82450         0.71980
C         -3.87671         3.57807         0.88356
C         -2.58052         2.85364         0.71301
C         -1.32326         3.63295         0.33703
C         -0.05738         2.86235         0.84368
C          1.17782         3.61210         0.37460
C          2.44192         2.85090         0.13057
C          3.76698         3.53094        -0.02091
C          4.98517         2.82543         0.46407
C          6.24501         3.60958         0.55068
C          7.42332         2.92975         0.45977
C          8.61121         3.61687        -0.05024
C          9.83446         2.96165        -0.13441
C         -8.58142         4.94656        -0.96761
C         -7.45549         5.68152        -0.74971
C         -6.20813         5.03227        -0.25250
C         -5.18547         5.81830         0.53105
C         -3.92994         5.09291         0.90961
C         -2.60705         5.82622         0.96794
C         -1.31231         5.08528         0.81393
C         -0.05117         5.84251         0.50016
C          1.26831         5.08938         0.70806
C          2.40657         5.70035        -0.11135
C          3.80018         5.04241        -0.30529
C          4.83572         5.76211         0.59966
C          6.26279         5.12648         0.59114
C          7.26431         5.68700        -0.40449
C          8.42462         4.90274        -0.64466
C         -7.36911         7.13592        -1.16926
C         -6.29738         7.96116        -0.44930
C         -5.19622         7.31462         0.34850
C         -3.90308         8.06421         0.58219
C         -2.62886         7.25892         0.49585
C         -1.32635         7.95115         0.19097
C         -0.05692         7.19515         0.37429
C          1.25135         7.96956         0.49591
C          2.37056         7.16761        -0.20192
C          3.64407         7.93561        -0.23438
C          4.89462         7.26458         0.21244
C          6.22779         7.93576        -0.09332
C          7.18939         7.01267        -0.79042
C         -6.03551         9.32506        -0.97710
C         -4.93800        10.04102        -0.65961
C         -3.80726         9.49261         0.12377
C         -2.46354        10.12107        -0.02706
C         -1.30305         9.44250         0.12016
C          0.01227        10.20379         0.23273
C          1.24494         9.38076        -0.09704
C          2.31614         9.94083        -0.70424
C          3.57695         9.17243        -1.09155
C          4.89959         9.90808        -1.03914
C          6.05922         9.30790        -0.72262
C        -11.17010        -0.75120        -0.67287
C         -9.90438        -1.58657        -0.55953
C         -8.83398        -0.85215         0.27894
C         -7.51988        -1.59434         0.13964
C         -6.31049        -0.82404         0.46989
C         -5.02732        -1.55536         0.73567
C         -3.75990        -0.78481         0.89770
C         -2.41636        -1.50180         1.02636
C         -1.35132        -0.85938         0.12505
C          0.01494        -1.48597         0.39149
C          1.23270        -0.72242        -0.05158
C          2.55989        -1.43260        -0.20997
C          3.77181        -0.70362         0.25146
C          4.93381        -1.55166         0.74434
C          6.25595        -0.77306         0.89322
C          7.50807        -1.37579         0.31530
C          8.86109        -0.73329         0.63039
C          9.88685        -1.19271        -0.47076
C         11.21955        -0.49779        -0.30581
C        -10.05151        -3.02045        -0.00357
C         -8.69968        -3.73837        -0.07575
C         -7.47863        -2.94891        -0.07918
C         -6.16283        -3.61922        -0.31281
C         -4.91400        -2.93363         0.17478
C         -3.65175        -3.67482         0.44439
C         -2.48710        -3.00847         0.76036
C         -1.21985        -3.74364         0.73936
C          0.05421        -2.95657         0.63536
C          1.29147        -3.68958         0.20368
C          2.52193        -2.94683        -0.18899
C          3.83997        -3.64686        -0.24876
C          5.09241        -2.87484        -0.00465
C          6.34869        -3.68560         0.27788
C          7.55228        -2.82821        -0.05220
C          8.87470        -3.48538        -0.25180
C          9.96344        -2.70956        -0.45528
C         -8.62643        -5.10730        -0.06946
C         -7.39043        -5.86089        -0.17650
C         -6.10394        -5.12861        -0.58774
C         -4.85588        -5.78457         0.00514
C         -3.70320        -5.12682         0.34857
C         -2.49022        -5.90631         0.85760
C         -1.19518        -5.11361         0.72869
C          0.07480        -5.82861         0.35956
C          1.36755        -5.10234         0.73907
C          2.65965        -5.84719         0.37348
C          3.89577        -5.12181        -0.06387
C          5.08066        -5.77259        -0.20779
C          6.37553        -5.01817        -0.54015
C          7.65596        -5.79192        -0.21526
C          8.92834        -4.99452        -0.48603
C         -7.36673        -7.22464        -0.13766
C         -6.10969        -7.97820        -0.51031
C         -4.89600        -7.28516         0.14340
C         -3.60050        -7.93381        -0.33326
C         -2.37147        -7.26562         0.15850
C         -1.13651        -8.09037         0.48958
C          0.08140        -7.29311         0.05651
C          1.35073        -8.07505        -0.25792
C          2.62895        -7.32176         0.06212
C          3.88861        -7.89117        -0.50002
C          5.19664        -7.26480         0.01484
C          6.40440        -7.87207        -0.71114
C          7.66066        -7.14546        -0.24688
C         -6.03306        -9.42686        -0.06422
C         -4.85717       -10.07681        -0.09023
C         -3.62515        -9.42264        -0.70135
C         -2.30109       -10.11317        -0.42837
C         -1.15407        -9.51354        -0.04858
C          0.14881       -10.32657        -0.05463
C          1.41985        -9.52456         0.38951
C          2.73109       -10.06824        -0.14673
C          3.99045        -9.70525         0.37795
C          5.31936       -10.14554        -0.18677
C          6.36971        -9.38337        -0.54942
O          1.58596         5.20807         2.10853
H          1.66657         6.18709         2.30344
O         -2.75540        -7.16577        -1.23711
O          7.25734        -1.79307        -1.05879
O         -9.22576        -0.86421         1.67051
H         -8.45431        -0.51324         2.17700
O         -4.93004         5.47618         1.92181
O         -0.07858        -6.32109        -1.02416
O         -1.80713         5.45908         2.13577
O         -7.01479         2.67661        -2.24288
O          7.56981         1.95205         2.53154
H          8.51989         2.11683         2.74418
O          6.32634        -7.61807        -2.12671
H          6.40148        -6.62747        -2.26629
O        -10.26378         1.60693         1.30205
H        -10.26185         0.71080         1.71943
O          1.57400         7.99045         1.85190
O         -2.13378         7.34521        -0.89047
O          4.62173        -3.04038        -1.34654
O          3.90904        -8.08073        -1.81867
H          2.98168        -8.18441        -2.16902
O          9.26982        -1.30425         1.88590
H          9.83197        -0.63590         2.34048
O         -1.02149        -8.17540         1.93030
H         -1.82131        -8.61530         2.28601
O          4.50065         1.63313         2.50584
H          5.32626         1.78812         3.01720
O         -5.83410         2.71578         1.99250
H         -5.13204         2.70703         2.68029
O          4.60262         2.77482        -0.96165
O          1.54554         3.27339        -0.98008
O         -4.02244         9.12993         1.55035
O         -9.42977        -1.78338        -1.90836
H         -9.06341        -0.93559        -2.24941
O          4.14623         8.13666         1.11801
O         -6.59866         0.16181         1.54738
O         -5.30642        -2.87973        -1.23629
O          1.34762        -4.96006         2.17183
H          1.54559        -5.83552         2.57202
O          2.86523        -6.87458         1.42917
O          1.61053        -3.53132        -1.19519
O         -0.03944        11.39945        -0.54245
H         -0.25266        11.15876        -1.46708
O          1.32868        -8.28540        -1.69503
H          0.76775        -7.56327        -2.07975
O         -4.55717        -1.26553         2.07646
O          9.83365         1.26969         1.76974
O          1.96751         6.39039        -1.33539
O          4.03281        -9.46704         1.73167
H          4.90240        -9.05672         1.96599
O          6.35877        -0.23805         2.23228
O         -5.01950        -7.56941         1.56694
H         -4.29944        -7.08597         2.04545
O          4.32448         5.62472         1.92442
H          5.09375         5.66804         2.54157
O          0.25675        -2.01579         1.73354
O         -3.12592         3.12941         2.05649
O         -0.72872         1.24679        -0.97569
O          6.43485        -4.85869        -1.92537
O          5.44940        -7.43227         1.42047
H          4.82803        -6.85203         1.91790
O         -6.04067        -5.33317        -1.97915
O          3.41212         8.73086        -2.46506
H          3.20647         9.51229        -3.01829
O         -0.07168         2.78341         2.27005
H          0.09014         3.68137         2.64017
O         -5.46010         4.28150        -1.28573
O          1.83251        -0.93430        -1.36695
O          6.84482         5.47460         1.88813
H          7.05596         6.44632         1.85142
O         -6.35927         7.90388         1.00712
O         -8.07879         0.53541        -1.54575
O         -7.08364         7.16330        -2.58158
H         -6.62723         6.33190        -2.83014
O          6.83504         8.17897         1.22906
H          6.13027         8.61780         1.76145
O         -2.00417        -1.29017         2.38811
H         -2.80315        -1.38096         2.95409
O         -3.77017        -9.52709        -2.13785
H         -4.56645        -8.98146        -2.37899
O        -11.02301        -3.73569        -0.75926
H        -10.79282        -3.60464        -1.70458
O         -4.66580         1.56041        -1.30001
H         -5.44811         1.92982        -1.80777
O          4.56721        -1.99253         2.08762
H          4.80734        -1.25051         2.69789
O          9.12788        -5.16347        -1.90110
H          8.24164        -4.96728        -2.31441
O          0.34817       -10.88441        -1.35007
H          0.07563       -10.22749        -2.02450
O         -5.96944        -7.95307        -1.94901
H         -5.97893        -6.98513        -2.22785
O          9.46097        -0.73315        -1.77291
H          8.68104        -1.27260        -2.05022
O         -1.28430         3.79360        -1.08701
H         -1.10412         2.91749        -1.50681
O         -1.72813        -1.16955        -1.22241
H         -1.26921        -0.54032        -1.82382
O         -2.71772        -6.16748         2.28147
H         -2.64971        -5.31368         2.76018
O          4.23021         5.26523        -1.64534
H          3.54544         4.91169        -2.25275
O          6.37574        -4.05575         1.67090
H          5.90648        -3.35565         2.18886
O          1.36945        -9.41628         1.79674
H          2.26447        -9.20276         2.14643
H         12.14361        -1.04953        -0.53538
H         12.19013         1.38816        -0.11004
H         10.67203         3.45265        -0.65289
H          9.25247         5.34285        -1.22236
H          7.97152         7.43977        -1.43789
H          6.99236         9.88981        -0.79898
H          4.92258        10.94183        -1.42169
H          2.23759        10.99002        -1.03962
H          0.12026        10.51826         1.30798
H         -2.42970        11.21763        -0.13467
H         -4.80366        11.04360        -1.09496
H         -6.79254         9.75675        -1.64855
H         -8.36165         7.63847        -1.01981
H         -9.49412         5.46311        -1.30846
H        -10.77778         3.44687        -0.62203
H        -12.14241         1.12392        -0.80285
H        -12.08410        -1.29389        -0.96410
H        -10.39739        -2.98860         1.06222
H         -9.56558        -5.68226        -0.03666
H         -8.27889        -7.78447         0.12670
H         -6.94082        -9.92539         0.31037
H         -4.79689       -11.13093         0.22243
H         -2.24779       -11.16291        -0.76254
H          0.05158       -11.18213         0.66335
H          2.69587       -10.41267        -1.19318
H          5.44896       -11.24127        -0.22051
H          7.27325        -9.91218        -0.89408
H          8.61096        -7.70146        -0.19956
H          9.80653        -5.44306         0.04527
H         10.93139        -3.18185        -0.68701
