         324
 CSIRO Nanostructure Databank - Neutral Graphene Oxide Data Set
C          1.38637         1.98268         0.46458
C          1.35411         3.37635         0.62411
C          2.58599         1.30503         0.31991
C          2.54449         4.13615         0.61656
C          1.36218         6.31775         0.97462
C          1.37760         7.69844         1.00093
C          2.53856         5.58527         0.69297
C          2.54898         8.44247         0.70144
C          1.38602        10.59451         1.12878
C          1.37359        11.98908         1.21545
C          2.54093         9.90197         0.74713
C          2.50202        12.74056         0.90505
C          1.55021        14.86085         2.06006
C          1.66218        16.18582         2.37344
C          2.45160        14.21935         1.07776
C          2.80531        16.97683         2.00496
C          2.96310        18.32076         2.35036
C          3.83084         2.00638         0.38027
C          3.79057         3.45266         0.50451
C          5.03673         1.31224         0.32445
C          4.99166         4.19520         0.38102
C          3.73410         6.31375         0.42162
C          3.73349         7.75053         0.37550
C          4.94444         5.58779         0.20972
C          4.92781         8.49476        -0.01834
C          3.71764        10.64302         0.41028
C          3.69759        12.07585         0.46722
C          4.90540         9.96013        -0.02189
C          4.86533        12.80889         0.07522
C          3.66147        14.99762         0.65977
C          3.93993        16.26559         1.39307
C          4.81135        14.28660         0.00192
C          5.20550        17.03081         1.08849
C          4.11433        19.05589         2.01425
C          5.21229        18.48185         1.34247
C          6.34966         1.96518         0.64404
C          6.29663         3.47768         0.40573
C          7.50770         1.25991        -0.03552
C          7.47259         4.15136        -0.20895
C          6.07922         6.31911        -0.38699
C          6.07216         7.79971        -0.38334
C          7.31886         5.55404        -0.74802
C          7.23220         8.51292        -0.96010
C          6.03701        10.71378        -0.40156
C          6.04461        12.14696        -0.32545
C          7.21468        10.03573        -0.98187
C          7.25704        12.89589        -0.65608
C          6.06666        15.05955        -0.29894
C          6.20745        16.46715         0.16410
C          7.30819        14.30802        -0.58236
C          7.31830        17.19594        -0.14002
C          6.32123        19.22187         0.89200
C          7.40929        18.60104         0.23343
C          8.63483         1.90229        -0.54382
C          8.61783         3.33816        -0.67862
C          9.88139         1.20648        -0.79973
C          9.76380         4.03275        -1.05567
C          8.61113         6.29804        -0.98538
C          8.57362         7.81784        -1.05888
C          9.81257         5.43102        -0.85447
C          9.76703         8.71520        -0.93574
C          8.48085        10.80639        -1.13146
C          8.45596        12.19253        -1.03168
C          9.73740        10.10048        -1.25018
C          9.68079        12.97105        -1.33212
C          8.49713        15.05988        -0.78556
C          8.42097        16.56497        -0.95462
C          9.72498        14.41255        -1.02271
C          9.75721        17.25094        -0.76801
C          8.58114        19.31958        -0.06841
C          9.76663        18.67814        -0.50742
C         11.07086         1.86799        -1.13321
C         11.00563         3.31726        -1.42032
C         12.35623         1.26140        -1.15340
C         12.30130         4.10384        -1.53190
C         11.08717         5.98575        -0.61932
C         11.02113         8.19119        -0.62853
C         12.27809         5.50633        -1.09443
C         12.24535         8.72839        -1.03562
C         10.98562        10.78565        -1.35613
C         11.00200        12.24855        -1.53165
C         12.21777        10.09371        -1.35976
C         12.26544        12.97677        -1.23654
C         10.96035        15.11797        -1.05491
C         10.93868        16.55262        -0.93036
C         12.23063        14.41121        -1.05391
C         12.25618        17.28112        -1.09071
C         10.98233        19.39235        -0.52250
C         12.22427        18.74216        -0.69084
C         13.58470         1.97712        -1.24500
C         13.59926         3.42995        -1.34976
C         14.81865         1.30528        -1.07977
C         14.76010         4.18939        -1.24443
C         13.48744         6.35092        -1.24838
C         13.46750         7.87657        -1.21626
C         14.78788         5.64590        -1.14899
C         14.75211         8.55124        -0.96453
C         13.50830        10.81933        -1.38168
C         13.45274        12.27771        -1.09811
C         14.74789        10.03579        -1.03428
C         14.70216        12.94751        -0.81963
C         13.43419        15.08648        -0.78394
C         13.36533        16.53687        -0.35631
C         14.69013        14.40100        -0.70864
C         14.67639        17.27297        -0.42932
C         13.43278        19.40644        -0.53083
C         14.68830        18.69661        -0.47438
C         16.05226         2.00000        -1.08420
C         16.04101         3.45872        -1.33577
C         17.28878         1.37118        -0.94441
C         17.33054         4.24014        -1.22525
C         15.95559         6.39673        -1.02312
C         15.94227         7.84811        -0.85476
C         17.27957         5.73548        -1.11352
C         17.18009         8.58012        -0.52361
C         15.82410        10.72867        -0.24099
C         15.85477        12.20825        -0.55414
C         17.15235         9.98521        -0.32554
C         17.13965        12.87831        -0.44679
C         15.87518        15.10893        -0.41334
C         15.87842        16.55284        -0.25374
C         17.16089        14.40653        -0.40420
C         17.07949        17.26182        -0.01078
C         15.91299        19.38235        -0.40913
C         17.13803        18.69233        -0.15418
C         18.51751         2.09995        -0.80169
C         18.53687         3.52831        -0.79306
C         19.72553         1.40534        -0.59249
C         19.69951         4.24782        -0.38592
C         18.50864         6.46100        -0.63569
C         18.40055         7.89367        -0.25963
C         19.69007         5.67223        -0.21677
C         19.54383         8.56066         0.21251
C         18.33157        10.66627         0.01311
C         18.26121        12.13172         0.20494
C         19.54560         9.97976         0.30376
C         19.50684        12.88731         0.54689
C         18.36661        15.07092         0.12148
C         18.29508        16.52587         0.35162
C         19.53627        14.36266         0.37478
C         19.57868        17.28388         0.54066
C         18.35643        19.39432        -0.08534
C         19.62279        18.81718         0.49718
C         20.92503         2.09703        -0.30542
C         20.89705         3.52199        -0.12065
C         22.15001         1.40522        -0.19890
C         22.07380         4.20584         0.31260
C         20.81021         6.33231         0.32796
C         20.69097         7.77228         0.81912
C         21.98806         5.60952         0.59998
C         22.01594         8.52171         0.82644
C         20.76312        10.71397         0.59620
C         20.77549        12.13364         0.61301
C         22.00808         9.98287         0.77778
C         21.97353        12.88508         0.68103
C         20.79553        15.03354         0.48550
C         20.78421        16.48705         0.17285
C         21.99397        14.30860         0.57273
C         22.02772        17.20690        -0.17710
C         20.90790        19.40309        -0.05594
C         22.07609        18.69626        -0.21235
C         23.34885         2.08226         0.12249
C         23.28383         3.47306         0.46158
C         24.58655         1.38104         0.05543
C         24.50761         4.12140         0.96505
C         23.16656         6.33389         1.13377
C         23.17400         7.81813         1.06159
C         24.48219         5.60176         1.25609
C         24.46136         8.49284         1.35030
C         23.20154        10.68202         0.89879
C         23.22995        12.15481         0.90338
C         24.47042         9.99547         1.22014
C         24.54458        12.87661         0.69714
C         23.29597        15.03904         0.45972
C         23.30315        16.48102         0.07135
C         24.55610        14.27787         0.24295
C         24.48350        17.07280        -0.62395
C         23.35522        19.29855        -0.48385
C         24.53838        18.56415        -0.66116
C         25.84150         2.01430         0.23770
C         25.81910         3.40406         0.76922
C         27.04248         1.33732         0.09645
C         27.09429         4.20503         0.75555
C         25.75272         6.36301         1.10175
C         25.75388         7.77814         1.16518
C         26.92922         5.69294         0.69950
C         26.98162         8.50470         1.13809
C         25.73875        10.61643         0.71962
C         25.74694        12.06296         0.36818
C         27.03493         9.95212         0.96739
C         27.03001        12.77053         0.25578
C         25.72562        14.85477        -0.19191
C         25.71469        16.24164        -0.74589
C         27.00672        14.14335        -0.08399
C         27.00649        16.95796        -0.99165
C         25.80028        19.17253        -0.83831
C         27.01633        18.44350        -0.94272
C         28.39447         1.99912         0.10925
C         28.38632         3.45481         0.54363
C         29.47202         1.27527         0.90815
C         29.76067         4.05591         0.46187
C         28.03027         6.50812         0.38285
C         28.18655         7.80797         0.86694
C         29.96834         5.40086         0.18225
C         29.53966         8.42152         1.05200
C         28.22632        10.63025         0.77376
C         28.23717        12.04742         0.41853
C         29.51552         9.97435         1.27020
C         29.44814        12.76961         0.28294
C         28.23755        14.82563        -0.23702
C         28.28969        16.21892        -0.74060
C         29.44419        14.14937         0.01567
C         29.53733        16.98981        -0.58436
C         28.25375        19.08819        -0.96436
C         29.50300        18.39581        -0.81187
C         30.59698         1.90774         1.31133
C         30.81745         3.33204         1.05224
C         31.99238         4.03722         1.39243
C         31.02702         6.16652         0.67628
C         30.85991         7.66446         0.86373
C         32.06739         5.43393         1.28393
C         32.04106         8.49555         0.51726
C         30.81996        10.65944         0.79840
C         30.77034        12.08420         0.33227
C         31.99929         9.83517         0.44065
C         31.80536        12.71328        -0.54451
C         30.78517        14.86613         0.08497
C         30.74530        16.33458        -0.29386
C         31.79912        14.04613        -0.69681
C         31.93200        17.08100        -0.24979
C         30.72214        19.11548        -0.77131
C         31.91730        18.45905        -0.50464
O         30.28880         7.86911         2.20381
O         21.18527        16.67235        -1.25270
O          2.48125        15.01011        -0.18408
O         25.54306        11.04900        -0.68485
O         17.49166        13.64538        -1.63781
O         13.42109         7.15235        -2.49887
O         11.08435         7.09518         0.21851
O         18.20393         6.33589        -2.08248
O         16.82081         3.80242        -2.53498
O          6.89010         9.24374        -2.18172
O          7.29736         4.15366         1.26723
O          8.63596         6.99914        -2.27849
O         24.78452        16.39810        -1.88539
O         25.15796         3.40742         2.07792
O         28.96716         6.05216        -0.53770
O         27.74265        16.36706        -2.11062
O         31.22441        11.76764         1.69363
O          5.04805        14.84459        -1.33988
O         18.87447        16.82544         1.72011
O         23.67873         5.87952         2.44426
O         18.51398        12.51631         1.59893
O          6.32838         5.74195        -1.77324
O         23.49621        16.12226         1.46977
O         24.48077         9.37485         2.53315
O         14.51247        10.49056        -2.40395
O         11.55119         3.71890        -2.72697
O         27.90599         3.72127         1.89774
O          5.09344        16.17103         2.30001
O         10.24034        12.72190        -2.68148
O         24.03401        12.68973         2.04887
O         28.84291         2.02001        -1.28626
H         28.97051         1.09272        -1.57663
O         29.42494        10.17348         2.69491
H         30.02960         9.52162         3.11887
O         12.98590        16.52672         1.05775
H         13.71638        16.11445         1.56506
O          8.06066        16.78258        -2.36297
H          8.60825        16.18061        -2.91057
O         15.40620        10.59888         1.15969
H         16.13658        10.93060         1.72594
O         20.31589         7.64952         2.23334
H         21.09273         7.30224         2.72334
O         12.59119        17.23094        -2.50297
H         11.89821        17.71314        -3.00004
O         19.59757        19.28193         1.89085
H         19.10612        18.59582         2.40332
O          6.57005         1.76431         2.08039
H          7.12617         2.52030         2.38058
O         31.20142        14.85163         1.47886
H         31.25308        13.91769         1.78140
H          0.44002         1.42420         0.44532
H          0.37986         3.87438         0.71796
H          2.59568         0.21281         0.19649
H          0.42396         5.79320         1.19931
H          0.44255         8.21730         1.24639
H          0.46390        10.05684         1.38041
H          0.44834        12.49167         1.52760
H          0.71694        14.27857         2.47865
H          0.90126        16.65440         3.01594
H          2.13747        18.83735         2.86169
H          5.01857         0.21857         0.20346
H          4.14672        20.12882         2.25344
H          7.54264         0.16793         0.10296
H          6.36793        20.30189         1.09811
H          9.91127         0.12373        -0.60243
H          8.62441        20.39170         0.17688
H         12.41771         0.17383        -0.99102
H         10.97251        20.46294        -0.26508
H         14.82201         0.21442        -0.93561
H         13.43806        20.49437        -0.36205
H         17.32819         0.27493        -0.85997
H         15.92654        20.47875        -0.49386
H         19.73818         0.30739        -0.65284
H         18.33138        20.48567        -0.22887
H         22.17803         0.32467        -0.40181
H         20.93433        20.50109        -0.13628
H         24.56669         0.32101        -0.23853
H         23.41018        20.39763        -0.51739
H         27.01290         0.28140        -0.21965
H         25.85756        20.27208        -0.83754
H         29.34444         0.19924         1.10454
H         28.27780        20.18827        -1.00131
H         31.37967         1.35056         1.84878
H         32.82784         3.49418         1.85733
H         32.93750         5.96006         1.70195
H         32.97209         7.96728         0.26289
H         32.91524        10.38442         0.17614
H         32.55326        12.08452        -1.05024
H         32.54581        14.54905        -1.32964
H         32.87927        16.57926        -0.00837
H         30.71291        20.20084        -0.94617
H         32.85773        19.02670        -0.47304
