         257
 CSIRO Nanostructure Databank - Neutral Graphene Oxide Data Set
C        -11.25783         0.69052        -0.23051
C        -10.06880         1.52516        -0.08154
C         -8.79678         1.03668         0.57471
C         -7.51752         1.42808        -0.20264
C         -6.26365         0.76142         0.41034
C         -5.05726         1.51219         0.87274
C         -3.87423         0.76956         1.46394
C         -2.57333         1.53011         1.49614
C         -1.32270         0.82742         1.01611
C         -0.00126         1.58708         1.00634
C          1.30606         0.84550         0.85548
C          2.64506         1.54610         1.03862
C          3.94075         0.78815         1.15225
C          5.25342         1.52305         1.40874
C          6.56419         0.71807         1.30392
C          7.28319         0.99737        -0.01654
C          8.68406         0.52954        -0.04487
C          9.68485         1.26505        -0.91440
C         11.04629         0.61912        -0.80879
C        -10.03001         2.86937        -0.36868
C         -8.81025         3.66196        -0.26650
C         -7.45252         2.96547        -0.33720
C         -6.40301         3.68875         0.47970
C         -5.16848         3.00798         0.96748
C         -3.89236         3.78518         1.14689
C         -2.60732         3.05178         1.40300
C         -1.29067         3.80073         1.36464
C          0.00198         3.04295         1.39242
C          1.29897         3.79445         1.15862
C          2.62553         3.04334         1.23660
C          3.92611         3.75911         0.95578
C          5.26791         3.00623         1.09056
C          6.50518         3.66919         0.51805
C          7.92903         3.38291         0.97995
C          8.91971         3.65317        -0.12964
C          9.74137         2.78921        -0.77580
C         -8.81011         5.03709        -0.29360
C         -7.58537         5.83017        -0.25598
C         -6.30386         5.02033        -0.23011
C         -5.02630         5.81979        -0.02951
C         -3.87137         5.25010         0.74952
C         -2.57410         6.01736         0.77820
C         -1.30641         5.18754         0.74821
C         -0.03712         5.81918         0.24850
C          1.27788         5.19739         0.64467
C          2.51082         5.75804        -0.00761
C          3.83524         5.00628         0.09707
C          5.09241         5.67375        -0.41250
C          6.43710         5.00626        -0.19392
C          7.70616         5.78185        -0.38170
C          8.88178         5.09922        -0.43547
C         -7.56676         7.18370        -0.44134
C         -6.34294         8.05631        -0.20998
C         -5.03960         7.29056        -0.26670
C         -3.78305         8.10689        -0.14992
C         -2.51658         7.42316         0.20388
C         -1.28879         7.87763        -0.58391
C         -0.01166         7.31651         0.04659
C          1.27180         8.03664        -0.17971
C          2.49492         7.19954        -0.43372
C          3.79066         7.91793        -0.68482
C          5.08215         7.16187        -0.67988
C          6.33638         7.92467        -0.24302
C          7.61549         7.24793        -0.77437
C         -6.21811         9.34839        -1.00083
C         -5.04047         9.91584        -1.32058
C         -3.70982         9.18615        -1.23474
C         -2.44452        10.01480        -1.04920
C         -1.26112         9.39442        -0.78342
C          0.03875        10.05152        -0.90351
C          1.23330         9.42215        -0.72048
C          2.56583        10.10853        -0.99939
C          3.77468         9.39946        -0.32693
C          5.08902        10.04338        -0.71961
C          6.24770         9.37188        -0.68166
C        -11.31779        -0.66975        -0.32070
C        -10.12304        -1.53869        -0.38414
C         -8.83931        -0.86628        -0.08394
C         -7.68611        -1.36045         0.59948
C         -6.39962        -0.67813         0.83184
C         -5.15174        -1.50587         1.01763
C         -3.85651        -0.75004         1.29166
C         -2.56106        -1.47182         1.10117
C         -1.31551        -0.66518         0.81193
C         -0.00110        -1.42682         0.77034
C          1.30408        -0.66890         0.78291
C          2.54015        -1.40479         1.23552
C          3.85558        -0.70517         1.38954
C          5.14353        -1.50214         1.35141
C          6.45897        -0.80226         1.37794
C          7.77112        -1.51734         1.07170
C          8.85496        -0.76244         0.37345
C         10.06783        -1.48892         0.00275
C         11.20038        -0.66366        -0.42996
C        -10.07192        -3.02554        -0.42760
C         -8.89356        -3.71317        -0.54057
C         -7.52105        -3.06741        -0.68947
C         -6.42445        -3.68396         0.16305
C         -5.14203        -2.94944         0.55657
C         -3.81947        -3.60277         0.22878
C         -2.54729        -2.87986         0.54173
C         -1.32671        -3.64797         0.98440
C         -0.04836        -2.87641         1.22231
C          1.25369        -3.64221         1.28844
C          2.51946        -2.88636         0.93531
C          3.80840        -3.64452         0.86654
C          5.14221        -2.94164         0.91665
C          6.43768        -3.71939         0.96806
C          7.79509        -3.01903         1.05671
C          8.96493        -3.77002         0.36266
C         10.09216        -2.84744        -0.04547
C         -8.79393        -5.16138        -0.73410
C         -7.61546        -5.83830        -0.60482
C         -6.43701        -5.18308         0.04945
C         -5.10182        -5.87475        -0.04096
C         -3.81147        -5.10491         0.03175
C         -2.48826        -5.84520         0.20325
C         -1.32878        -5.16425         0.89312
C         -0.04063        -5.94290         1.07222
C          1.24983        -5.14746         1.15689
C          2.48275        -5.75302         0.54213
C          3.78151        -5.14213         0.98052
C          5.04664        -5.94191         0.97136
C          6.34590        -5.20084         1.29394
C          7.79547        -5.69569        -0.75894
C          8.37883        -4.51252        -0.85826
C         -7.49809        -7.27386        -1.07321
C         -6.32841        -8.06882        -0.48585
C         -5.11110        -7.37265         0.08049
C         -3.79380        -8.09487         0.12939
C         -2.48512        -7.34782         0.13662
C         -1.25316        -8.17489         0.45928
C          0.02843        -7.45156         0.76866
C          1.35503        -8.10638         0.36962
C          2.48984        -7.15028         0.07570
C          3.72208        -8.03156         0.12601
C          5.08047        -7.33014         0.35065
C          6.27354        -7.75869        -0.47291
C          7.54340        -6.99259        -0.72143
C         -6.14084        -9.41765        -1.07348
C         -4.95887       -10.06089        -1.10859
C         -3.72295        -9.53410        -0.49443
C         -2.42712        -9.89535        -0.99803
C         -1.19242        -9.58433        -0.20405
C          0.05413        -9.74237        -1.04219
C          1.22176        -9.11619        -0.75860
C          2.44885        -9.45958        -1.45218
C          3.66501        -8.96954        -1.06907
C          4.86959        -9.36090        -1.76842
C          6.07427        -8.81796        -1.49733
O         -6.24228         3.48671         1.87879
O          3.41456        -8.82913         1.33584
O         -6.13421        -7.92060         0.95053
O          5.86585        -1.28842         2.61022
O         -6.84283        -4.52258         1.27862
O          6.48911         3.74414        -0.93112
O         -3.12961        -1.35722         2.41351
O         -5.14629         0.98974        -0.50835
O         -3.00696        -2.97118        -0.82544
O         -3.77040        -9.25552         0.95407
O         -6.94968         3.23951        -1.69794
O          5.85017        -3.29660        -0.31110
O          4.47287         7.59274        -1.93228
O         -3.39748         3.59738         2.49895
O          4.30438         4.81403        -1.26976
O         -0.94361        -3.15648         2.31110
O          6.69258         1.34343        -1.02812
O          3.44093         1.17778        -0.15629
O          0.64792         1.45352        -0.29067
O          3.02505        -1.05164         2.55500
O          1.92863        -8.81809         1.52648
O          4.24522        -5.77346         2.20144
O          3.08363        -3.22992        -0.35154
O         -3.12560         8.41391         1.09871
O         -1.54265         0.22659        -0.30556
O         -4.41930        -5.44931        -1.26113
O          1.36110         4.95832         2.05695
O          8.18834        -2.31580         2.24053
O         -7.41593        -0.98280         1.89352
O         -2.16703        -6.53880        -1.04458
O          5.36546         2.49934         2.45701
O         -1.35864         7.30234        -1.86696
O         -0.72399        -8.18239         1.79559
O          2.35636        -6.09045        -0.88827
O          0.63082         7.97556         1.15908
O         -8.73233         0.93958         1.81935
O         -3.25265         1.12022         2.71678
O          0.76558        -1.22992        -0.44488
O          3.36318         3.71165         2.29415
O          1.45275        -4.50459         2.43984
O         -4.74918         6.37830        -1.36461
O          7.17608        -5.73645         2.00455
O         -3.43549         6.00743         1.92901
O          6.08199        -8.21483         0.91231
O         -5.27527        -2.59078         1.96474
O         -0.60768         3.49629         2.62440
O         -7.20032        -2.50257        -1.73971
O         -0.95601        -5.72997         2.17392
O         -0.85375         5.06455        -0.66309
O         -9.09438        -0.98727        -1.39889
O          2.21661         6.13485        -1.38403
O          8.26612         3.25448         2.13536
O         -6.18720         4.50391        -1.63020
O          7.64509         7.36555        -2.20088
H          6.83875         6.94773        -2.57133
O          2.80215        10.17187        -2.40877
H          2.93660         9.26167        -2.74932
O          3.64000         9.44173         1.11545
H          3.48975        10.36906         1.39512
O         -7.36678        -7.28063        -2.50633
H         -6.73155        -6.58467        -2.77557
O         -1.12120       -10.56299         0.86200
H         -0.80448       -10.09456         1.67152
O          7.44054         1.03809         2.38316
H          6.97074         0.87385         3.22759
O          9.22545         1.06692        -2.28538
H          8.28882         1.37674        -2.32114
O         -6.45566         8.46545         1.18991
H         -7.19750         9.10063         1.26818
O         -7.61801         0.90663        -1.52741
H         -6.82301         1.19504        -2.02834
O         -3.58388         8.53909        -2.52185
H         -2.76317         7.96008        -2.50593
O          9.55489        -4.69779         1.26992
H          8.84674        -5.21641         1.72321
O          6.37522         7.86428         1.20161
H          5.64425         8.42445         1.54857
H         12.19603        -1.13198        -0.44498
H         11.91814         1.20263        -1.14027
H         10.42030         3.23567        -1.52506
H          9.80744         5.61101        -0.74227
H          8.50934         7.79331        -0.38199
H          7.18537         9.87638        -0.96067
H          5.07122        11.09828        -1.03403
H          2.51995        11.16757        -0.63120
H          0.03723        11.09982        -1.24353
H         -2.46614        11.09392        -1.27284
H         -5.04232        10.89961        -1.81775
H         -7.14965         9.91430        -1.17175
H         -8.52957         7.70895        -0.56145
H         -9.76943         5.57749        -0.32090
H        -10.94406         3.38396        -0.70956
H        -12.21230         1.23770        -0.30517
H        -12.30243        -1.15023        -0.42051
H        -11.02306        -3.57940        -0.37627
H         -9.68719        -5.70134        -1.08713
H         -8.44564        -7.82378        -0.83831
H         -7.00847        -9.85657        -1.58771
H         -4.87887       -11.02312        -1.63556
H         -2.34750       -10.44093        -1.94930
H          0.04224       -10.51921        -1.82229
H          2.38535       -10.17248        -2.28773
H          4.77141       -10.11894        -2.55943
H          6.95821        -9.13375        -2.07048
H          8.39510        -7.66107        -0.96031
H          8.33227        -3.96509        -1.81608
H         11.01490        -3.35331        -0.36730
