         278
 CSIRO Nanostructure Databank - Neutral Graphene Oxide Data Set
C        -11.30957         0.81940        -0.41913
C        -10.25229         1.57446        -1.20860
C         -8.94383         0.78644        -1.31919
C         -7.66079         1.57628        -1.46765
C         -6.35911         0.79305        -1.77787
C         -5.05973         1.57377        -1.40936
C         -3.88389         0.77497        -0.85151
C         -2.55581         1.51073        -0.88276
C         -1.35874         0.65288        -0.60660
C         -0.12273         1.36069        -0.15904
C          1.17909         0.76103        -0.57840
C          2.44131         1.41243        -0.13676
C          3.71503         0.64102        -0.11665
C          5.00923         1.31808         0.20705
C          6.21992         0.77563        -0.51194
C          7.48549         1.56479        -0.55810
C          8.77291         0.80600        -0.77457
C         10.10092         1.57563        -0.72152
C         11.19195         0.76131        -0.04046
C        -10.08548         2.95282        -0.60262
C         -8.89807         3.64964        -0.51609
C         -7.64867         3.01587        -1.04928
C         -6.35822         3.61489        -0.57499
C         -5.04771         3.02529        -1.01337
C         -3.76643         3.83650        -0.66981
C         -2.49500         2.97834        -0.58822
C         -1.29629         3.54867         0.11627
C         -0.14102         2.81494         0.20869
C          1.10105         3.37515         0.82175
C          2.40768         2.66099         0.68688
C          3.69480         3.44504         0.60190
C          5.02919         2.73373         0.80311
C          6.24006         3.57014         0.39260
C          7.56658         2.81893         0.30908
C          8.76783         3.65679        -0.07976
C          9.94054         3.03918        -0.33487
C         -8.86108         5.02109        -0.12577
C         -7.64407         5.76279        -0.05946
C         -6.38524         4.97986         0.04846
C         -5.10358         5.69797         0.26170
C         -3.89602         4.80466         0.51644
C         -2.59360         5.57876         0.64383
C         -1.39534         4.92308         0.61885
C         -0.18080         5.58829         1.18626
C          1.10469         4.82936         1.21144
C          2.40220         5.66601         1.22169
C          3.66214         4.91502         0.78998
C          4.96900         5.67973         0.97443
C          6.21505         4.90899         0.57534
C          7.50515         5.69442         0.78267
C          8.64050         5.17518        -0.15490
C         -7.56212         7.13871        -0.15151
C         -6.23455         7.80636        -0.42477
C         -5.06299         7.04599         0.16509
C         -3.77667         7.82051         0.27547
C         -2.66124         7.02915         0.93447
C         -1.42389         7.80683         1.20744
C         -0.08504         7.12031         1.32064
C          0.90771         7.69008         0.27501
C          2.26014         6.91269         0.31470
C          3.51612         7.59727        -0.13207
C          4.86399         6.94213         0.10950
C          6.15609         7.77305         0.07694
C          7.29613         7.17869         0.72872
C         -6.18854         9.29179        -0.14578
C         -5.12095         9.93398         0.34589
C         -3.94342         9.20732         0.95778
C         -2.60415         9.93501         0.85862
C         -1.42540         9.27982         0.97151
C         -0.07663         9.99096         1.03924
C          1.10644         9.19040         0.49570
C          2.27272         9.78502         0.17569
C          3.44404         9.08370        -0.51969
C          4.75070         9.80706        -0.25763
C          5.94716         9.23679        -0.03215
C        -11.25093        -0.46654        -0.05961
C        -10.11844        -1.41383        -0.40235
C         -8.87193        -0.64733        -0.88309
C         -7.50441        -1.15285        -0.40086
C         -6.35859        -0.67338        -1.29814
C         -5.05893        -1.41823        -1.20375
C         -3.78808        -0.66780        -1.28310
C         -2.57926        -1.37228        -1.34576
C         -1.34090        -0.69868        -1.24479
C         -0.04900        -1.37335        -1.50679
C          1.20985        -0.66019        -1.09794
C          2.42640        -1.43752        -0.62986
C          3.73087        -0.63776        -0.94615
C          4.97377        -1.39974        -0.53245
C          6.26415        -0.69922        -0.63920
C          7.44562        -1.40898        -0.46261
C          8.73904        -0.67679        -0.54391
C          9.88070        -1.38484         0.15046
C         11.15581        -0.57213         0.13904
C         -9.84316        -2.36258         0.78099
C         -8.63862        -3.26133         0.57158
C         -7.53310        -2.67983        -0.24646
C         -6.29098        -3.48725        -0.41922
C         -4.98100        -2.71833        -0.41455
C         -3.76350        -3.54422        -0.72623
C         -2.63841        -2.89873        -1.53924
C         -1.27913        -3.50720        -1.19000
C         -0.06493        -2.88600        -1.84328
C          1.24534        -3.63410        -1.48474
C          2.48725        -2.87369        -1.12899
C          3.67211        -3.62948        -0.59920
C          4.96939        -2.88563        -0.46844
C          6.25838        -3.57523        -0.75494
C          7.49632        -2.83569        -0.48329
C          8.73880        -3.56306        -0.40726
C          9.93038        -2.85122        -0.22324
C         -8.48016        -4.43055         1.23017
C         -7.13858        -5.13923         1.33407
C         -6.28325        -4.93797         0.06187
C         -4.88945        -5.50516         0.29816
C         -3.70552        -4.81367        -0.20660
C         -2.42852        -5.56163        -0.16665
C         -1.20057        -4.91429        -0.71365
C          0.02858        -5.73186        -0.87160
C          1.19993        -5.09367        -1.13583
C          2.49177        -5.89795        -1.09504
C          3.70200        -5.10491        -0.65331
C          5.00207        -5.82788        -0.64389
C          6.26934        -5.09675        -0.83103
C          7.54425        -5.77296        -0.51329
C          8.70663        -5.01957        -0.41549
C         -7.17479        -6.62919         1.61996
C         -6.08101        -7.40167         1.34397
C         -4.86951        -6.79290         0.77162
C         -3.61348        -7.61218         0.93262
C         -2.38758        -6.97813         0.27342
C         -1.39983        -7.92758        -0.46439
C         -0.00050        -7.27652        -0.85533
C          1.12504        -7.84205         0.02294
C          2.43065        -7.10542        -0.13699
C          3.72232        -7.86422        -0.06871
C          5.00567        -7.17486        -0.41440
C          6.26198        -7.87855        -0.21157
C          7.46752        -7.19115        -0.25172
C         -6.00624        -8.81682         1.72466
C         -4.95053        -9.61210         1.45034
C         -3.80107        -9.12269         0.59351
C         -2.42498        -9.71893         0.93570
C         -1.29031        -9.13179         0.49818
C          0.07383        -9.30790         1.11324
C          1.25055        -9.34023         0.16647
C          2.42998        -9.98946         0.30096
C          3.70687        -9.37621        -0.24470
C          5.00662        -9.96420         0.26371
C          6.17422        -9.28031         0.19074
O          8.38347         5.56427        -1.49478
H          7.52874         5.18795        -1.79226
O          5.21668         6.07843         2.34294
H          4.34616         6.12210         2.81859
O          7.94216         5.35974         2.13061
H          7.18692         5.59100         2.72317
O        -10.76985         1.77434        -2.55041
H        -10.35700         1.09247        -3.12511
O         -2.31250         7.38377         2.32712
O         -7.26055        -0.53274         0.87722
H         -7.99023        -0.79619         1.49623
O          2.23951        -3.23264        -2.50926
O         -8.98578        -0.31080        -2.29730
O         -6.47253         3.76915         0.87634
O          3.42455        -4.40401         0.61490
O          0.84088        -0.69009        -2.49294
O          0.29709         4.97314         2.42826
O          2.63851         6.09951         2.57293
H          1.75664         6.36848         2.95236
O          8.84973        -0.13374        -1.89600
O         -2.23717         2.44668        -1.94662
O         -7.22966        -3.33733        -1.51863
O          0.52645        -7.90307         1.41088
O          3.18213        -7.18220         1.10814
O         -1.91445        -5.97960         1.20070
O         -7.78138         2.67225        -2.45332
O          0.33000         7.55383        -0.98279
O          3.63251         4.33593        -0.54673
O         -0.90006         0.55373         0.79459
O          1.68530         2.55943         1.92513
O          2.27124        -1.50049         0.79649
H          3.11033        -1.84330         1.19692
O         -4.85293        -2.35291         1.04810
O         -2.01689        -8.27669        -1.66161
O          1.93443         1.63289        -1.49464
O          4.36409         0.42751         1.16372
O         -4.24461         0.70001         0.56319
H         -3.79690        -0.07094         0.99163
O          4.93026        -2.11056         0.76926
O         -4.19304        -9.36583        -0.74856
H         -3.45053        -9.06095        -1.34716
O         -4.88883         2.61010        -2.40829
O          0.38810         7.45011         2.65735
H         -0.33035         7.16920         3.27022
O         -4.04199         4.03248         1.71650
H         -4.33504         4.61794         2.44403
O         -3.35588        -7.64192         2.36565
H         -2.78033        -6.86573         2.56675
O          0.19342        10.28209         2.42493
H          0.31026         9.41644         2.88145
O         -6.32357         0.68715        -3.20748
H         -6.38188         1.60105        -3.56547
O         -5.90856        -1.52359        -2.37707
O          0.28538        -7.66964        -2.20946
H         -0.59416        -8.02524        -2.54495
O         -3.58517         4.72245        -1.79238
H         -3.36243         4.15579        -2.56698
O          6.57443         1.61258        -1.68047
O         -1.00266        -3.71141         0.20820
O          2.76285         6.72855        -1.03402
O          5.67631         6.92759        -1.06327
O         -6.86813        -5.76179        -0.96566
H         -7.30093        -5.16084        -1.61769
O          6.27913        -4.26966        -2.04578
O          9.45272        -1.38786         1.56133
H         10.14050        -1.84936         2.08599
O         -0.23641        -2.99610        -3.26636
H          0.59550        -2.66405        -3.67834
O         -3.32778         8.06412        -1.07997
H         -4.12205         8.16419        -1.65607
O          3.19584         9.16702        -1.93491
H          2.54115         8.45863        -2.14325
O         -6.04728         7.72039        -1.89104
H         -6.01527         6.77167        -2.14152
O         -9.58332        -1.54833         1.94510
H         -9.41556        -2.14348         2.70597
O          3.71810        -9.55488        -1.69480
H          3.66085       -10.51420        -1.88477
O          5.15504         2.59605         2.23477
H          5.97518         2.08119         2.41663
O         -3.50018        -1.88380         1.27104
H         -2.99316        -2.70010         1.51551
O          7.83074         2.34896         1.66890
H          8.04817         3.15127         2.20042
O          2.75294        -6.42585        -2.40683
H          1.95818        -6.95133        -2.67815
O         10.59381         1.69576        -2.08654
H         10.25350         0.91416        -2.58295
O          3.82525        -0.35838        -2.33873
H          3.09844         0.25886        -2.58874
O         -4.30770         9.06946         2.34800
H         -3.56923         8.59390         2.79992
O         -6.49085        -4.49991         2.47094
H         -5.68753        -5.01928         2.68933
O         -2.93178        -3.19312        -2.91643
H         -2.12289        -3.00740        -3.45077
O        -10.55485        -2.26125        -1.48152
H        -10.33719        -1.79838        -2.32237
H         12.06416        -1.08380         0.49951
H         12.15734         1.27835         0.08176
H         10.82302         3.66117        -0.55865
H          9.60465         5.65094         0.15322
H          7.98903         7.81764         1.29703
H          6.83026         9.87539         0.12562
H          4.70415        10.90569        -0.32106
H          2.35793        10.87952         0.28415
H         -0.14327        10.97312         0.50852
H         -2.60941        11.03028         0.73547
H         -5.15186        11.03000         0.45468
H         -7.05327         9.87077        -0.50705
H         -8.48236         7.73214        -0.26763
H         -9.81646         5.55159         0.00797
H        -11.01227         3.45539        -0.28249
H        -12.21292         1.40013        -0.17246
H        -12.10741        -0.91267         0.47071
H        -10.76166        -2.98096         0.96814
H         -9.30439        -4.80864         1.85926
H         -8.03960        -7.05896         2.14949
H         -6.86416        -9.22353         2.28367
H         -4.96267       -10.66602         1.77008
H         -2.37154       -10.53576         1.67565
H          0.08989        -9.97271         2.00721
H          2.47273       -10.98330         0.77613
H          5.01450       -11.01258         0.60318
H          7.11094        -9.77643         0.49050
H          8.40123        -7.73000        -0.02777
H          9.65687        -5.54055        -0.21999
H         10.88417        -3.39694        -0.14384
