         410
 CSIRO Nanostructure Databank - Neutral Graphene Oxide Data Set
C         28.28987        27.59471        -2.11588
C         28.36581        29.00785        -2.33895
C         27.28490        29.76654        -2.76927
C         28.38009        31.91125        -2.24221
C         27.29464        31.17971        -2.71235
C         28.24350        33.31617        -1.84441
C         27.05950        34.05539        -2.09385
C         27.97408        36.04945        -1.01933
C         26.93246        35.37976        -1.70103
C         27.90550        37.44661        -0.62387
C         26.70018        38.17642        -0.71442
C         27.83427        40.26189        -0.16524
C         26.65452        39.53543        -0.44573
C         27.82716        41.70123         0.00507
C         26.61526        42.44046         0.09173
C         27.84211        44.53305         0.30554
C         26.62168        43.81102         0.25538
C         27.86288        45.94651         0.48414
C         30.60780        27.54541        -1.28204
C         29.36434        26.89657        -1.63912
C         30.72098        28.92226        -1.41243
C         29.65091        29.66979        -2.08789
C         30.79660        31.88252        -1.35608
C         29.66665        31.21151        -2.07881
C         30.57860        33.29959        -0.90444
C         29.28856        33.97744        -1.16202
C         30.22627        35.95771         0.00956
C         29.16030        35.32458        -0.74679
C         30.30002        37.39895         0.08835
C         29.09198        38.12502        -0.21292
C         30.30221        40.25543         0.03993
C         29.06558        39.54782        -0.08172
C         30.30178        41.68165         0.04402
C         29.06125        42.39969         0.07541
C         30.30554        44.54858         0.18762
C         29.07665        43.82837         0.18640
C         30.30578        45.96554         0.37742
C         29.05248        46.63260         0.54319
C         33.01617        24.67252        -0.74736
C         31.85245        25.38848        -1.10843
C         32.84954        27.39972        -0.12940
C         31.75095        26.74052        -0.86189
C         32.89442        28.90140        -0.14659
C         32.02390        29.64358        -1.13757
C         32.73491        31.68047         0.19003
C         31.84552        31.08234        -0.69467
C         32.40750        32.97838         0.72493
C         31.37231        33.77112         0.24231
C         32.97170        36.19741         1.04442
C         31.12824        35.11453         0.66327
C         32.82236        37.46370         0.44985
C         31.53222        38.10371         0.25857
C         32.75413        40.24882        -0.07967
C         31.53148        39.53221         0.07441
C         32.75332        41.67464        -0.10621
C         31.53092        42.39507         0.02059
C         32.77340        44.51654        -0.02173
C         31.54971        43.82873         0.05714
C         32.79039        46.01921        -0.11109
C         31.54805        46.67320         0.43961
C         32.87269        48.62229         1.09952
C         31.64694        48.00195         0.88869
C         35.38033        23.15364        -0.22973
C         35.38291        24.54259        -0.02179
C         34.14377        25.28586        -0.19283
C         35.30266        27.38147         0.42753
C         34.12459        26.68941         0.09866
C         35.26354        28.82995         0.59605
C         34.13849        29.56562         0.27710
C         35.30135        31.79783         0.96897
C         33.98497        30.99618         0.63910
C         35.38846        33.27989         0.91069
C         34.27883        34.07671         1.29597
C         35.40556        36.16885         0.66142
C         34.18164        35.45127         1.01728
C         35.27038        37.48018         0.03392
C         34.03127        38.13005        -0.00237
C         35.17452        40.26174        -0.52336
C         33.98674        39.54670        -0.27334
C         35.20031        41.67742        -0.42949
C         33.98187        42.38596        -0.22335
C         35.25286        44.49574        -0.18047
C         33.99539        43.80858        -0.15918
C         35.28226        45.89351         0.19569
C         34.08556        46.61327         0.39308
C         35.36260        48.48437         1.36168
C         34.11071        47.93009         0.92155
C         35.45294        49.82400         1.90174
C         37.78018        23.18201        -0.22991
C         36.58433        22.48145        -0.37846
C         37.86128        24.52759         0.21539
C         36.60655        25.23338         0.24387
C         37.79374        27.32752         0.59859
C         36.56932        26.65615         0.47022
C         37.80031        28.78896         0.85248
C         36.50631        29.56597         0.93828
C         37.69229        31.69797         0.30957
C         36.54393        31.04471         0.72040
C         37.74360        33.13601         0.13491
C         36.58482        33.89269         0.46095
C         37.81156        36.00049        -0.26930
C         36.68409        35.36184         0.42396
C         37.78062        37.40486        -0.55748
C         36.45023        38.05582        -0.60237
C         37.67829        40.27263        -0.99351
C         36.40073        39.55553        -0.90396
C         37.64559        41.65570        -0.84962
C         36.43334        42.37656        -0.57280
C         37.73307        44.49113        -0.38972
C         36.45591        43.79170        -0.40295
C         37.76887        45.81778         0.19000
C         36.53339        46.48542         0.52159
C         37.80831        48.18547         1.79922
C         36.54713        47.74171         1.17786
C         37.81879        49.52557         2.53578
C         36.60879        50.34642         2.38700
C         40.66341        20.30617         1.70961
C         39.71675        20.76100         0.79465
C         40.54550        23.08792         1.01117
C         39.69618        22.11614         0.44327
C         40.38630        24.55045         0.81771
C         39.12483        25.20196         0.51272
C         40.25287        27.41694         0.65123
C         39.05234        26.63668         0.58293
C         40.22663        28.84853         0.44269
C         39.01173        29.52590         0.46885
C         40.22511        31.67708        -0.21857
C         38.91583        30.91542         0.03005
C         40.21406        33.14553        -0.21046
C         38.97114        33.82315        -0.17085
C         40.20968        35.91575        -0.73562
C         38.98849        35.24324        -0.41703
C         40.12515        37.26661        -1.40871
C         38.91987        38.09496        -0.97926
C         40.11220        40.23232        -1.44113
C         38.91906        39.53566        -1.19044
C         40.09148        41.68947        -1.65848
C         38.83022        42.43482        -1.23241
C         40.19367        44.52816        -0.83056
C         38.89171        43.84411        -0.81036
C         40.23562        45.90325        -0.12141
C         38.99853        46.43633         0.46527
C         40.29600        48.24194         1.49705
C         39.07236        47.61425         1.27911
C         40.38276        49.50601         2.26390
C         39.14867        50.16992         2.81749
C         40.32119        52.35119         2.90153
C         39.22506        51.62177         3.14483
C         42.81005        20.70402         2.91245
C         41.67690        21.18746         2.12581
C         42.92657        23.29092         1.78330
C         41.62718        22.54779         1.75128
C         42.77239        24.77357         1.58671
C         41.52656        25.35004         1.11982
C         42.67359        27.55792         0.97861
C         41.48787        26.77524         0.90665
C         42.68994        28.92401         0.60469
C         41.46026        29.59618         0.32626
C         42.68645        31.74161         0.10549
C         41.47769        30.98300         0.08092
C         42.68299        33.15255        -0.11877
C         41.43943        33.85285        -0.27525
C         42.68748        36.00052        -0.65685
C         41.43105        35.26471        -0.57476
C         42.70750        37.37924        -0.95825
C         41.45679        38.04046        -1.42386
C         42.69695        40.33269        -1.39155
C         41.42974        39.54087        -1.52657
C         42.67516        41.67812        -1.65360
C         41.40171        42.48859        -1.81536
C         42.67891        44.38147        -0.65189
C         41.44527        43.75585        -0.93545
C         42.71308        45.71057        -0.00885
C         41.53305        46.38761         0.35966
C         42.74843        48.31103         1.31410
C         41.53691        47.65112         1.04999
C         42.78365        49.69393         1.73262
C         41.59481        50.32277         2.08459
C         42.79848        52.47239         2.43146
C         41.48476        51.82588         2.10102
C         43.82586        21.50142         3.29524
C         45.19678        23.57381         2.64770
C         43.83218        22.97824         2.97897
C         45.19140        24.87889         2.12270
C         43.91742        25.51785         1.79330
C         45.20214        27.65369         1.29842
C         43.89628        26.95471         1.52268
C         45.17693        28.84927         0.38100
C         43.91364        29.65240         0.48778
C         45.17309        31.75970         0.14251
C         43.92618        31.03308         0.25449
C         45.17320        33.17219        -0.01205
C         43.91511        33.89626        -0.13491
C         45.13136        36.08434        -0.24356
C         43.89347        35.29385        -0.34271
C         45.15712        37.48979        -0.68535
C         43.92613        38.16176        -0.94278
C         45.19178        40.25498        -1.27679
C         43.94280        39.57526        -1.20249
C         45.25354        41.59974        -2.02287
C         43.91036        42.53097        -1.93650
C         45.11527        44.59174        -1.02359
C         43.90609        43.77642        -1.07372
C         45.16897        45.81549        -0.20911
C         43.96806        46.33407         0.29135
C         45.28869        48.44379         1.00777
C         43.99718        47.59802         1.04875
C         45.20509        49.90019         1.21294
C         44.01276        50.47080         1.67970
C         43.96203        51.84424         2.14785
C         47.62211        23.48937         2.43841
C         46.42110        22.90658         2.83041
C         47.66283        24.80085         1.91024
C         46.43298        25.52275         1.81082
C         47.64201        27.50274         0.97879
C         46.45254        26.86720         1.33597
C         47.63260        28.91669         0.63030
C         46.44224        29.64216         0.49569
C         47.63332        31.76044         0.13534
C         46.41345        31.05480         0.25044
C         47.64397        33.14667        -0.18393
C         46.41463        33.84999        -0.15719
C         47.67876        36.00330        -0.62994
C         46.45463        35.31865        -0.18722
C         47.65997        37.38627        -0.82593
C         46.40618        38.14808        -0.82452
C         47.70322        40.14891        -1.64580
C         46.40456        39.53923        -1.13232
C         47.78649        41.67205        -1.49238
C         46.52547        42.44185        -1.70568
C         47.65863        44.49182        -0.69321
C         46.48181        43.88416        -1.29382
C         47.65412        45.85732        -0.36198
C         46.41035        46.52584        -0.10866
C         47.61654        48.66769         0.17907
C         46.45267        47.87812         0.32268
C         47.53538        50.06550         0.46566
C         46.37755        50.65908         0.92014
C         50.12539        24.72317         1.37353
C         48.89178        25.42480         1.45580
C         50.09273        27.41854         0.61613
C         48.88192        26.78137         1.03293
C         50.07708        28.82328         0.31627
C         48.88332        29.56659         0.43469
C         50.12739        31.64568        -0.41987
C         48.87990        31.01883         0.29706
C         50.03661        33.02941        -0.95968
C         48.85767        33.82595        -0.59804
C         50.14435        35.90155        -0.96355
C         48.87788        35.21964        -0.80936
C         50.15480        37.34513        -0.93935
C         48.93058        38.06036        -1.00997
C         50.16020        40.17255        -0.99000
C         48.95422        39.46742        -1.14856
C         50.13034        41.60031        -0.71460
C         48.94517        42.28851        -0.78888
C         50.13660        44.46939        -0.07453
C         48.84235        43.69484        -0.36333
C         50.13736        45.92186        -0.28442
C         48.89151        46.59486        -0.22688
C         50.09140        48.71264        -0.27554
C         48.86675        48.01617        -0.14598
C         51.27033        25.31727         0.87562
C         52.50453        27.33479        -0.02140
C         51.29917        26.68550         0.48430
C         52.45873        28.65864        -0.48648
C         51.22870        29.40068        -0.32477
C         52.85943        31.64774        -1.34751
C         51.04188        30.65833        -0.91556
C         52.73675        33.06459        -1.06026
C         51.42605        33.77333        -1.20446
C         52.59243        35.92297        -0.58519
C         51.36074        35.20389        -0.95639
C         52.64357        37.36628        -0.81885
C         51.39751        38.05659        -0.94374
C         52.65494        40.17735        -0.85114
C         51.39873        39.47239        -0.90912
C         52.66722        41.57986        -0.70981
C         51.40730        42.24851        -0.33440
C         52.65744        44.48929        -0.48366
C         51.43760        43.74313        -0.11929
C         52.62283        45.89867        -0.57865
C         51.35399        46.62591        -0.43717
C         51.29012        48.04012        -0.45919
C         54.95179        27.20805        -0.29756
C         53.77274        26.63665         0.05128
C         55.00608        28.55391        -0.88244
C         53.70820        29.32999        -0.98535
C         55.11596        31.44439        -0.41399
C         53.86216        30.82650        -0.91360
C         55.14038        32.97394        -0.38289
C         53.88249        33.71026        -0.66579
C         55.16192        35.89917        -0.66757
C         53.90276        35.17278        -0.44506
C         55.13654        37.30248        -0.77448
C         53.88166        38.03287        -0.81400
C         55.11837        40.18942        -0.93631
C         53.89397        39.46890        -0.88861
C         55.11018        41.62232        -0.94043
C         53.87511        42.31674        -0.75484
C         55.06626        44.48090        -0.93105
C         53.85950        43.76335        -0.70240
C         55.03098        45.89587        -0.97917
C         53.84029        46.58275        -0.83130
C         56.28845        29.30063        -0.76424
C         56.34660        30.62542        -0.54946
C         56.38256        33.75688        -0.54218
C         56.36652        35.10608        -0.72841
C         56.34710        38.07032        -0.88119
C         56.33972        39.43522        -0.95946
C         56.30929        42.38857        -1.10202
C         56.28717        43.75932        -1.11722
O         33.14365        33.43214         1.83007
O         51.80085        31.01348        -2.03248
O         37.66109        48.27419         3.26228
O         34.44170        31.24581         1.99764
O         38.90938        22.48145        -0.65103
O         32.26286        28.21817         0.97179
O         55.03729        32.16702         0.85761
O         40.18791        45.78680        -1.58553
O         45.33159        41.17249        -3.34462
O         31.87370        35.64331         1.72948
O         30.13617        30.46565        -3.24526
O         36.17878        38.56635        -1.95584
O         53.13554        35.55823         0.75022
O         45.85515        35.89950         1.02747
O         49.96047        31.66495         1.03049
O         39.99077        49.37341         3.70424
O         49.29238        43.99547         1.00804
O         39.12632        42.15326        -2.66380
O         44.53961        27.80142         2.57567
O         50.56790        33.28280        -2.27535
O         37.20372        29.15057         2.16164
O         47.52821        42.34164        -2.77331
O         41.59438        38.69505        -2.74125
O         36.43319        36.05353         1.71275
O         51.55261        42.82442         1.01424
O         31.36391        33.01831        -2.12019
O         54.31162        28.70721        -2.17049
O         39.44913        31.10862        -1.33026
O         44.92023        47.63966         2.18370
O         45.83949        44.71957        -2.28899
O         45.16881        28.26992        -0.97647
H         45.18666        29.01149        -1.61795
O         47.65348        39.84237        -3.06410
H         46.85893        40.34808        -3.42187
O         43.30251        23.68012         4.13070
H         43.89601        23.51637         4.89217
O         41.17321        52.19393         0.69889
H         41.98028        52.02463         0.16705
O         43.84178        43.08279        -3.25067
H         44.35574        42.44016        -3.82899
O         43.64594        22.78309         0.61105
H         43.08450        22.93652        -0.17773
O         32.76090        46.32266        -1.56553
H         32.77109        47.29973        -1.65456
O         32.76795        29.67540        -2.39132
H         32.16632        30.07980        -3.06235
O         41.39819        43.05551        -3.13526
H         40.45737        43.11351        -3.43048
O         39.81935        36.91592        -2.79413
H         40.19856        37.63656        -3.35382
H         27.34732        27.07535        -2.34181
H         26.34621        29.25887        -3.03400
H         26.34723        31.69263        -2.92686
H         26.22323        33.58914        -2.63132
H         26.00240        35.91242        -1.94211
H         25.77098        37.66096        -0.99318
H         25.68921        40.05402        -0.51654
H         25.65084        41.91630         0.05461
H         25.67266        44.35906         0.34524
H         26.90923        46.48524         0.58151
H         29.27231        25.81317        -1.48385
H         29.03204        47.72212         0.68155
H         33.03677        23.60532        -0.99925
H         31.05021        24.84876        -1.62977
H         32.87261        49.64607         1.49531
H         30.73718        48.55606         1.16047
H         34.44293        22.59793        -0.35013
H         34.56842        50.47382         1.85384
H         36.61191        21.42288        -0.66537
H         36.64967        51.40800         2.67044
H         40.69022        19.24955         2.01042
H         39.00601        20.07063         0.32266
H         40.35638        53.40871         3.20530
H         38.38239        52.06653         3.69670
H         42.80498        19.64110         3.19999
H         42.79950        53.50435         2.81222
H         44.62176        21.09647         3.93959
H         44.91228        52.36649         2.33009
H         48.55032        22.91271         2.55189
H         46.43432        21.88760         3.24250
H         48.41849        50.69803         0.30254
H         46.36672        51.74662         1.07603
H         50.17154        23.66658         1.67163
H         50.10403        49.81056        -0.24137
H         52.17389        24.69941         0.78855
H         52.20820        48.63170        -0.57184
H         55.89957        26.68471        -0.10143
H         53.79446        25.62907         0.48732
H         55.96476        46.44878        -1.15586
H         53.85059        47.67842        -0.90130
H         57.21837        28.71176        -0.80442
H         57.31893        31.11823        -0.40318
H         57.34484        33.22679        -0.51203
H         57.32800        35.61840        -0.87350
H         57.31446        37.55052        -0.87359
H         57.30189        39.96203        -1.01280
H         57.26815        41.87361        -1.24863
H         57.21707        44.32490        -1.27419
