         276
 CSIRO Nanostructure Databank - Neutral Graphene Oxide Data Set
C        -10.79858         0.47129         1.13786
C         -9.54066         1.21524         1.23992
C         -8.33323         0.52649         0.81697
C         -7.18293         1.22938         0.51640
C         -6.36980         0.78899        -0.67076
C         -4.99960         1.47946        -0.84181
C         -3.81347         0.74507        -1.39435
C         -2.49980         1.50280        -1.47641
C         -1.26304         0.71319        -1.76791
C          0.03996         1.48407        -1.87442
C          1.32798         0.74320        -2.15917
C          2.69550         1.45649        -2.13237
C          3.92241         0.74552        -1.58842
C          4.96468         1.53317        -0.83988
C          5.87171         0.99884         0.04300
C          6.89175         1.79717         0.85091
C          8.58497         0.78509        -0.62300
C          9.46643         1.67573        -0.04829
C         10.31704         1.14334         1.01529
C         -9.53969         2.57668         1.44603
C         -8.27788         3.28788         1.61217
C         -7.00912         2.54943         1.08326
C         -5.68801         3.27016         0.89390
C         -4.76828         2.92702        -0.31636
C         -3.37141         3.35613         0.12083
C         -2.47694         2.99131        -1.04346
C         -1.06827         3.58848        -0.93197
C          0.06827         2.90253        -1.43922
C          1.46284         3.47086        -1.18385
C          2.63573         2.94862        -2.03713
C          3.91390         3.71718        -1.81641
C          5.15907         2.94036        -1.35671
C          5.87199         3.75618        -0.33114
C          6.91554         3.27802         0.58679
C          9.07387         4.22658        -0.21738
C          9.67994         3.05981        -0.56620
C         -8.20640         4.73844         1.79284
C         -6.97825         5.41109         1.77511
C         -5.79874         4.77103         1.11001
C         -4.45231         5.41057         1.11885
C         -3.26480         4.59867         0.68731
C         -1.94879         5.33514         0.74517
C         -0.91862         4.80409        -0.22641
C          0.42638         5.49677        -0.09258
C          1.39199         5.00092        -1.14247
C          2.50353         5.88742        -1.62192
C          3.84956         5.21315        -1.70613
C          4.82250         5.95690        -0.80073
C          6.12016         5.19852        -0.61883
C          6.99198         5.69766         0.54506
C          7.93941         4.42277         0.77955
C         -6.85839         6.74779         2.17241
C         -5.55488         7.40599         2.29686
C         -4.30442         6.70087         1.87557
C         -3.03529         7.51537         1.62976
C         -2.20642         6.85723         0.48933
C         -0.94247         7.68484         0.37656
C          0.36586         7.03149         0.00697
C          1.43020         7.90358        -0.48507
C          2.47683         7.43658        -1.46561
C          3.84878         8.17580        -1.25121
C          5.16149         7.37820        -1.24675
C          6.29228         7.92690        -0.34043
C          7.28496         7.16300         0.22498
C         -5.50796         8.88122         2.40066
C         -4.47097         9.60226         1.92054
C         -3.27991         8.99097         1.33738
C         -2.34717         9.73795         0.69796
C         -1.14020         9.15158         0.00245
C          0.13733         9.90310         0.21360
C          1.36695         9.31280        -0.15231
C          2.55843        10.08202        -0.17074
C          3.83554         9.52449        -0.60659
C          5.11453        10.07774        -0.09911
C          6.26171         9.36156        -0.06553
C        -10.80183        -0.87398         1.07891
C         -9.49024        -1.59699         1.27024
C         -8.38113        -0.89928         0.52400
C         -7.41060        -1.54069        -0.19034
C         -6.32645        -0.74872        -0.85930
C         -5.11275        -1.47965        -1.41191
C         -3.81241        -0.74128        -1.82875
C         -2.47989        -1.47782        -1.58898
C         -1.28969        -0.79700        -1.70431
C         -0.06116        -1.47504        -2.33383
C          1.30036        -0.76435        -2.10757
C          2.51726        -1.46832        -1.58595
C          3.76920        -0.68980        -1.20699
C          4.63698        -1.21967        -0.11063
C          5.88257        -0.47827         0.39111
C          7.21114        -1.19847         0.07692
C          8.41856        -0.58604        -0.09323
C          9.70943        -1.22601         0.40118
C         10.44050        -0.18459         1.24032
C         -9.48719        -3.07445         1.08381
C         -8.46576        -3.72445         0.42185
C         -7.64659        -2.99020        -0.63236
C         -6.36754        -3.75693        -1.05870
C         -5.09715        -3.01535        -1.40585
C         -3.74646        -3.74140        -1.25097
C         -2.55062        -2.97257        -1.83964
C         -1.28991        -3.74921        -2.10619
C          0.02729        -3.00978        -2.14488
C          1.27693        -3.69703        -1.66049
C          2.27411        -2.81405        -0.90538
C          3.60135        -3.56068        -0.60797
C          4.60817        -2.68070         0.10358
C          5.88556        -3.36981         0.47478
C          7.18756        -2.65145         0.42916
C          8.36486        -3.25400         1.11035
C          9.50998        -2.54140         1.13747
C         -8.23068        -5.07236         0.77007
C         -7.15273        -5.83179         0.27797
C         -6.41746        -5.29818        -0.93097
C         -5.06129        -5.97056        -1.22319
C         -3.82973        -5.22849        -1.68061
C         -2.53605        -6.02408        -1.80830
C         -1.22165        -5.24851        -1.87746
C          0.05164        -5.95007        -1.49504
C          1.39504        -5.21931        -1.37980
C          2.12394        -5.58477        -0.09845
C          3.31626        -4.75079         0.30672
C          4.42057        -5.33238         1.13977
C          5.72898        -4.60102         1.30257
C          6.93191        -5.28746         1.84431
C          8.31341        -4.74803         1.44461
C         -6.99330        -7.13661         0.69965
C         -5.87440        -7.96389         0.25112
C         -4.85298        -7.35449        -0.65472
C         -3.87066        -8.27725        -1.36834
C         -2.52860        -7.51652        -1.54704
C         -1.33812        -8.01086        -0.71225
C          0.01864        -7.40413        -1.03606
C          1.17723        -7.99250        -0.28453
C          2.05701        -6.98767         0.40353
C          3.11100        -7.45460         1.38628
C          4.49600        -6.85164         1.18177
C          5.58467        -7.39553         2.08718
C          6.75144        -6.71256         2.26208
C         -5.97713        -9.43443         0.31368
C         -4.96859       -10.20894        -0.13952
C         -3.73653        -9.59164        -0.61631
C         -2.54564       -10.19711        -0.36390
C         -1.27501        -9.50047        -0.43287
C         -0.17264       -10.08410         0.10698
C          1.18157        -9.43691         0.23971
C          1.84129        -9.64175         1.58302
C          2.99381        -8.83515         1.95700
C          4.22834        -9.43436         2.51592
C          5.39886        -8.75456         2.58931
O          3.93887         9.32380        -2.12785
O          2.71429         2.30644        -3.32978
O          2.63707        -7.54547         2.73510
O         -6.20983        -1.05190        -2.27619
O         -2.20323        -3.38592        -3.18579
O          5.51730         3.59045         1.06762
O          1.23174        -5.91045         0.99005
O         -0.36238        -5.86476        -2.88943
O          1.03646        -3.52071        -3.07005
O         -2.07584         1.28854        -2.86576
O         -7.34501         2.56826         2.51456
O          0.53807         1.25965        -3.26358
O          3.34028        -4.58632         1.75377
O         -4.77334        -5.74543        -2.64228
O          3.93841        -1.79784         1.04371
O          6.75178        -3.53248        -0.69934
O         -4.73154         1.46069        -2.27489
O          4.53475        -0.31060        -2.39265
O          6.13918        -4.39114         2.69685
O         -5.38250         5.58685        -0.01725
O          7.42220         1.35321         1.86955
O          2.28927        -1.36480        -3.00241
O         -4.56379        -7.36120         0.77839
O         -4.77620         3.75665        -1.53566
O          0.00915         7.44855         1.41488
O          4.27104         4.61739        -2.94082
O          1.08326        -8.09246        -1.75077
O         -4.64214         6.65704         3.29264
O         -3.31913         3.70039        -2.06837
O         -2.46019        -7.02184        -2.89373
O         -5.97851        -3.49183        -2.44860
O          1.40508         5.49902        -2.50750
O          1.56591        -2.54913         0.32979
H          2.23394        -2.32327         1.02853
O          8.70843        -5.44101         0.24789
H          8.14874        -5.09103        -0.48432
O          4.08308         6.06812         0.43363
H          4.73100         6.22581         1.17191
O         -0.33861        -1.30847        -3.73700
H         -0.14540        -0.36985        -3.97908
O         10.58263        -1.54551        -0.71728
H         10.16052        -2.26555        -1.23115
O         -9.14255        -1.44090         2.69618
H         -9.96278        -1.54928         3.22213
O          5.81685        -0.62897         1.82329
H          6.54246        -0.08845         2.22518
O         -2.94778         6.93975        -0.72787
H         -2.72301         7.77512        -1.20235
O         -3.86879        -0.74607        -3.26496
H         -3.23411        -0.06317        -3.59132
O          5.64657         7.37252        -2.59652
H          5.39259         8.23944        -2.99029
O          9.55487         5.37344        -0.79238
H          8.85298         6.05841        -0.82930
O          4.20435        -4.00622        -1.81951
H          3.60541        -4.65291        -2.27829
O          2.07405       -10.18480        -0.66336
H          1.88663        -9.84309        -1.57036
O          1.88419         2.90882         0.09767
H          1.58922         3.53064         0.81947
O          6.03555         2.82349        -2.50256
H          5.52781         2.40542        -3.23212
O         -7.28200        -5.72849        -2.01013
H         -6.88896        -5.37006        -2.83933
O         -4.39423        -8.61246        -2.65824
H         -4.06612        -7.92479        -3.28870
O         -4.87775         2.75475         2.00160
H         -5.47669         2.69143         2.78375
O         -1.40738         5.13784         2.08698
H         -1.57005         5.96365         2.62048
O         -3.49658        -3.83875         0.18325
H         -3.12910        -2.99231         0.51390
O         -7.18458         1.28780        -1.76174
H         -6.67046         1.11719        -2.58710
O         -8.48207        -2.89276        -1.80392
H         -7.89748        -2.57178        -2.53044
O          2.22258        -5.73117        -2.45073
H          1.69668        -5.61955        -3.27886
O          1.03705         5.09004         1.17294
H          0.31455         5.16878         1.85575
O         -1.62289        -7.40132         0.59286
H         -2.53614        -7.64843         0.87636
O          4.89087        -7.20551        -0.17861
H          5.21036        -8.13255        -0.18602
O          1.97819         7.95560        -2.73022
H          1.44070         7.24216        -3.14923
O          6.93825         5.30868        -1.79231
H          6.37725         5.11526        -2.57982
O          7.85773         1.08359        -1.73331
H          8.08356         1.98624        -2.04587
O         -2.26932         7.49966         2.85952
H         -2.93553         7.42349         3.58760
O          6.29773         5.86020         1.80967
H          5.98263         4.96957         2.10314
O         -1.46880         9.18280        -1.44026
H         -0.63305         9.28952        -1.94515
H         11.15689        -0.55224         1.98977
H         10.91818         1.85448         1.60113
H         10.51622         3.16960        -1.27974
H          8.34804         4.44527         1.81622
H          8.04439         7.68463         0.83399
H          7.17515         9.82417         0.34025
H          5.11401        11.12603         0.23581
H          2.52787        11.11944         0.19384
H          0.10394        10.97727         0.44340
H         -2.50979        10.82116         0.57781
H         -4.51646        10.70205         1.93826
H         -6.39353         9.39394         2.80516
H         -7.74984         7.29148         2.51894
H         -9.11733         5.28048         2.08675
H        -10.48515         3.13384         1.51670
H        -11.73697         1.04453         1.09211
H        -11.73777        -1.44471         0.99190
H        -10.10579        -3.65905         1.78602
H         -8.86868        -5.52019         1.54837
H         -7.68345        -7.54983         1.45139
H         -6.89436        -9.87404         0.73026
H         -5.01058       -11.30398        -0.04125
H         -2.54503       -11.19249         0.10879
H         -0.23240       -11.14356         0.40402
H          1.80064       -10.67147         1.97569
H          4.17024       -10.46485         2.89679
H          6.27097        -9.23822         3.05608
H          7.56658        -7.18062         2.83767
H          9.06421        -4.99225         2.23761
H         10.41944        -2.98761         1.57182
