         294
 CSIRO Nanostructure Databank - Neutral Graphene Oxide Data Set
C          1.78110         2.44387         2.71618
C          1.68848         3.80835         2.45103
C          2.88152         1.66394         2.36840
C          2.81311         4.55001         1.78096
C          1.32914         6.57659         1.20957
C          1.25932         7.94443         0.77483
C          2.44760         5.81478         1.01493
C          2.39493         8.65783         0.39691
C          1.28815        10.90134         0.48627
C          1.26059        12.23519         0.23736
C          2.44429        10.07485         0.23441
C          2.41748        12.90784        -0.45827
C          1.32254        15.18362        -0.02442
C          1.38296        16.56870         0.14791
C          2.49492        14.43049        -0.31533
C          2.54326        17.29040        -0.13540
C          2.59965        18.70586         0.08088
C          4.08770         2.32401         1.76847
C          3.60333         3.52257         0.90258
C          5.05894         1.41395         1.03677
C          4.76608         4.16293         0.15500
C          3.52507         6.40190         0.11844
C          3.72388         7.90974         0.40302
C          4.84634         5.65440         0.22394
C          4.71595         8.53287        -0.59818
C          3.69823        10.73789        -0.08331
C          3.72376        12.25475         0.04440
C          4.84088        10.03342        -0.37179
C          4.94383        12.88895        -0.61206
C          3.69005        15.10100        -0.56393
C          3.69720        16.59108        -0.81358
C          4.94553        14.36166        -0.81839
C          5.01195        17.25233        -0.48615
C          3.73459        19.41984        -0.12582
C          5.01791        18.76957        -0.56612
C          6.03533         1.93363         0.26569
C          6.00114         3.37452        -0.12514
C          7.21730         1.16684        -0.28406
C          7.30586         4.07441        -0.27237
C          6.08859         6.32536        -0.22354
C          6.05541         7.78269        -0.60972
C          7.29994         5.54645        -0.70409
C          7.36226         8.49319        -0.47347
C          6.16106        10.68926        -0.75220
C          6.22252        12.16450        -0.43474
C          7.32231         9.96003        -0.06381
C          7.40068        12.81643        -0.22032
C          6.29277        15.09041        -0.81863
C          6.19242        16.54102        -0.34566
C          7.38065        14.30283        -0.06155
C          7.41774        17.22846        -0.07454
C          6.20153        19.41578         0.15789
C          7.47416        18.64719        -0.07425
C          8.52123         1.87412         0.16672
C          8.46039         3.37064        -0.14512
C          9.77376         1.18855        -0.37424
C          9.75888         4.07578        -0.10313
C          8.55590         6.31420        -0.29917
C          8.58396         7.67122        -0.20882
C          9.83101         5.53857        -0.51040
C          9.88877         8.43082        -0.37872
C          8.64320        10.70712        -0.13615
C          8.65088        12.07783        -0.03820
C          9.86275         9.88183         0.11179
C          9.88488        12.75249         0.57472
C          8.62828        15.02234         0.33869
C          8.71480        16.54397         0.28040
C          9.99173        14.33979         0.57532
C          9.83786        17.07695        -0.63148
C          8.68441        19.29937        -0.27063
C          9.91536        18.59524        -0.49990
C         10.98559         1.82594        -0.47991
C         11.01780         3.29368        -0.24837
C         12.26276         1.19602        -0.74356
C         12.25019         4.00222        -0.78476
C         11.10653         6.21533        -0.03385
C         11.12632         7.72152         0.19987
C         12.32715         5.46356        -0.39597
C         12.36181         8.42318        -0.35011
C         11.19678        10.57538         0.23779
C         11.12939        12.06582        -0.00589
C         12.42971         9.82318        -0.19410
C         12.38259        12.79300        -0.34446
C         11.15377        14.97905        -0.21246
C         11.14031        16.34417        -0.41412
C         12.42600        14.28197        -0.31773
C         12.41291        17.09397        -0.41450
C         11.08826        19.28474        -0.65466
C         12.39899        18.61064        -0.57436
C         13.49467         1.85950        -0.63881
C         13.51030         3.32895        -0.22781
C         14.73904         1.19234        -0.75412
C         14.75387         4.08897        -0.68180
C         13.47912         6.17764        -1.01172
C         13.43027         7.68488        -1.05802
C         14.74150         5.39659        -1.06923
C         14.69785         8.41400        -1.43703
C         13.58665        10.54993        -0.51829
C         13.66733        12.00752        -0.10277
C         14.72125         9.90869        -1.22765
C         14.87045        12.68824        -0.71919
C         13.60660        14.93874        -0.64596
C         13.66629        16.37899        -0.71018
C         14.84034        14.16299        -0.95382
C         14.83283        17.10532        -0.95800
C         13.63462        19.24944        -1.01904
C         14.81287        18.54641        -1.06604
C         15.97720         1.85339        -0.59415
C         16.03617         3.35644        -0.36955
C         17.20002         1.18353        -0.49840
C         17.25254         3.93171        -1.10862
C         15.99226         6.07093        -1.64802
C         15.97937         7.61966        -1.61956
C         17.21859         5.45474        -0.99915
C         17.32314         8.34364        -1.59742
C         16.04121        10.62523        -1.42031
C         16.17327        11.90461        -0.58509
C         17.31901         9.84639        -1.68644
C         17.38038        12.73461        -0.95994
C         16.14687        14.90610        -1.09116
C         16.12781        16.39303        -1.16449
C         17.35460        14.18280        -0.49988
C         17.44957        17.15112        -0.95512
C         16.13125        19.30096        -1.24177
C         17.18398        18.55074        -0.45335
C         18.43534         1.89449        -0.29136
C         18.49243         3.30202        -0.52167
C         19.61575         1.23824         0.13189
C         19.65904         4.02324        -0.29653
C         18.46075         6.23269        -0.74784
C         18.53409         7.70910        -0.99612
C         19.78952         5.49456        -0.65749
C         19.61134         8.41577        -0.52973
C         18.59949        10.58815        -1.40734
C         18.47270        12.05352        -1.35001
C         19.76803         9.91141        -0.69710
C         20.17816        13.06688        -0.38825
C         18.64332        15.00815        -0.39783
C         18.47854        16.35503        -0.16683
C         19.85111        14.32414         0.07438
C         19.40619        17.10389         0.76739
C         17.78658        19.05434         0.63678
C         18.60569        18.17485         1.55047
C         20.77882         1.96159         0.37439
C         20.81710         3.35814         0.18363
C         22.01800         4.13849         0.45807
C         20.66584         6.22087         0.37207
C         20.86343         7.70382        -0.02478
C         21.98300         5.48597         0.52423
C         21.43834         8.46576         1.13694
C         20.68235        10.66180         0.25836
C         20.84849        12.05207         0.40404
C         21.33887         9.80640         1.23843
C         21.56643        12.64223         1.54446
C         20.82277        14.99780         1.01819
C         20.07581        16.10765         1.77861
C         21.51512        13.95526         1.86365
C         20.90689        16.88853         2.75665
C         19.54854        18.90226         2.46529
C         20.61097        18.21739         3.04783
O         16.24645        15.55995        -2.38690
O         15.17726         8.06841        -2.75494
O         10.49280        10.12044         1.40989
O         11.46901        12.32836        -1.40317
O         17.50823         5.93519         0.35118
O         10.54504         3.69472         1.08386
O          7.60464        14.66915         1.33113
O         17.48247         9.04408        -2.87766
O         12.98768         6.85973        -2.21095
O          4.79800        13.41403        -1.99439
O          5.81458         6.13159         1.20444
O         14.64306        13.19525        -2.05183
O         15.07497        10.64811        -2.47234
O         19.65968        12.72031        -1.64294
O          4.99369         3.63403        -1.18846
O         10.37688        14.74258         1.87956
O         19.79732        10.20124        -2.13549
O         12.54130        17.97864         0.76448
O         11.98839         5.62462         1.00983
O          6.82449         8.13556        -1.79609
O         21.87406        15.61889         0.21560
H         22.28488        14.92207        -0.33876
O         20.00302         6.20231         1.65634
H         19.07647         5.88954         1.54415
O          7.15493         1.12904        -1.71362
H          6.76309         1.96771        -2.03619
O          6.98893         9.96822         1.35316
H          7.81802        10.01273         1.87782
O          7.25665         5.52477        -2.14676
H          8.17635         5.35443        -2.46820
O         20.40122         5.54824        -1.96556
H         21.03888         6.30440        -1.98411
O         16.25343         3.56558         1.04756
H         15.39056         3.39980         1.49942
O         13.86213        12.03767         1.34157
H         13.07158        11.64916         1.77502
O          9.78397        12.38692         1.95770
H          9.93610        13.23958         2.46343
O          2.24452        12.62905        -1.86784
H          3.04348        12.98139        -2.33177
O          5.19282        19.03718        -1.98644
H          4.58413        18.42887        -2.47144
O         16.05166         5.72016        -3.04310
H         15.41474         6.31206        -3.50941
O         16.98729        14.07356         0.93570
H         17.73296        14.42786         1.49235
O          3.08012         6.19025        -1.23790
H          2.40234         6.86457        -1.45390
O         17.15632         3.50975        -2.47950
H         17.76826         4.04774        -3.02350
O          3.81509        12.57162         1.45459
H          4.53708        12.03828         1.85031
O         12.26154         3.91121        -2.21487
H         12.35931         2.96989        -2.47099
O         20.40417        17.84563         0.05627
H         21.06172        17.20554        -0.30376
O         10.09031         8.44169        -1.82166
H          9.29362         8.82678        -2.24855
O         13.48617         3.34393         1.22506
H         12.76648         3.94742         1.52754
O          9.01663        16.97510         1.62408
H          9.59846        16.24637         2.01329
O          3.65552         5.13495         2.81980
H          4.21507         4.41525         3.20745
O          3.50155        16.78509        -2.28423
H          2.61986        16.41679        -2.51017
O          2.67403         3.01766        -0.06689
H          3.15192         2.95196        -0.92563
O         16.47567        19.42989        -2.62146
H         17.11347        18.70470        -2.83967
O         16.36217        11.43511         0.76883
H         16.41571        12.24118         1.33813
O          5.91941        19.40595         1.56460
H          6.76276        19.34280         2.05854
O          8.58178         1.74236         1.61159
H          9.34958         2.28901         1.90589
O          4.89758         2.85029         2.88152
H          5.22864         2.08705         3.40050
O         19.04820        15.36519         2.50139
H         18.44281        16.03254         2.91416
O         21.82010         7.72853        -1.12819
H         21.79879         8.62351        -1.53150
O         17.60707        17.50573         2.40470
H         17.10011        18.20287         2.87260
O         18.06995        17.30420        -2.26836
H         17.79465        16.51076        -2.79239
O          6.31067        10.59286        -2.19207
H          5.72309        11.26636        -2.59801
O          4.16161         8.40590        -1.92728
H          4.90796         8.55783        -2.55198
O          6.74866        15.18382        -2.18774
H          6.21540        14.55361        -2.72346
O          9.97308         5.52009        -1.97405
H         10.19060         6.44295        -2.26136
O          4.26322         8.08601         1.72428
H          4.04806         7.29595         2.27046
O         11.08509         7.86423         1.63171
H         11.66822         7.17095         2.01455
O          9.42012        16.79950        -1.99567
H         10.14457        17.04736        -2.60672
H          0.93265         1.95361         3.21865
H          0.80799         4.36374         2.80541
H          2.89841         0.58940         2.60307
H          0.46666         6.17635         1.76387
H          0.29051         8.45618         0.87120
H          0.39246        10.42812         0.91475
H          0.34210        12.79566         0.46056
H          0.36808        14.67390         0.15545
H          0.49835        17.10526         0.52218
H          1.68417        19.20928         0.42887
H          5.08389         0.34689         1.31388
H          3.73901        20.51099         0.00734
H          7.21804         0.11388         0.09243
H          6.31549        20.47879        -0.20062
H          9.72240         0.09661        -0.50853
H          8.70698        20.40135        -0.27131
H         12.26662         0.11613        -0.96163
H         11.07458        20.38741        -0.64773
H         14.73998         0.10599        -0.94153
H         13.62278        20.32305        -1.26019
H         17.22178         0.08202        -0.50952
H         16.00277        20.33296        -0.81652
H         19.60126         0.15090         0.29582
H         17.55932        20.08198         0.96814
H         21.68184         1.44280         0.72764
H         22.95893         3.59524         0.63504
H         22.89301         6.05919         0.75580
H         21.96456         7.90092         1.91932
H         21.80921        10.27258         2.11246
H         22.16650        11.99778         2.19956
H         22.09498        14.30815         2.73039
H         21.74795        16.39691         3.26731
H         19.35980        19.95500         2.72313
H         21.25468        18.75307         3.76264
