         210
 CSIRO Nanostructure Databank - Neutral Graphene Oxide Data Set
C         30.39953        31.67267         1.05301
C         30.47346        32.92400         1.07824
C         30.47099        36.03307         1.00442
C         30.45843        37.28046         0.91579
C         30.44621        40.35903         0.54148
C         30.36197        41.59921         0.35999
C         32.78743        28.89269         0.54865
C         31.67680        29.44349         0.74739
C         32.78415        31.58420         0.70209
C         31.52950        30.84525         0.84701
C         32.80075        33.02157         0.74756
C         31.59256        33.77229         0.92804
C         32.81795        35.92221         0.71224
C         31.59587        35.18241         0.89719
C         32.80693        37.36466         0.63846
C         31.58979        38.11060         0.71149
C         32.78419        40.25437         0.31691
C         31.57738        39.51773         0.54411
C         32.75791        41.68487         0.09504
C         31.48736        42.41430         0.11935
C         32.73270        44.36429        -0.29293
C         31.62850        43.80761        -0.10464
C         35.47087        27.38381         0.13381
C         35.29373        28.77357         0.21679
C         34.06956        29.46074         0.40381
C         35.26546        31.61469         0.35853
C         34.02541        30.88829         0.49501
C         35.24079        33.03273         0.38623
C         34.03296        33.75132         0.57618
C         35.27890        35.92702         0.50005
C         34.03448        35.19224         0.57937
C         35.26252        37.37018         0.47907
C         34.03365        38.09324         0.48389
C         35.25765        40.22667         0.20471
C         34.02564        39.52393         0.33486
C         35.25490        41.66072        -0.06898
C         33.98902        42.36992        -0.15142
C         35.22754        44.48156        -0.61361
C         34.03413        43.80274        -0.36743
C         35.49251        45.84275        -0.80170
C         37.84450        27.34535        -0.01190
C         36.56884        26.76982         0.05750
C         37.80165        28.76997         0.03984
C         36.54908        29.48803         0.14645
C         37.76618        31.64792         0.28292
C         36.51323        30.90809         0.21333
C         37.75245        33.02107         0.40517
C         36.50417        33.77961         0.04752
C         37.74812        35.94422         0.48715
C         36.50279        35.23678         0.44143
C         37.73388        37.38011         0.46976
C         36.49289        38.08467         0.40482
C         37.73591        40.21469         0.29234
C         36.48416        39.51094         0.27547
C         37.71551        41.69498         0.20135
C         36.45847        42.33787        -0.22918
C         37.81313        44.50784        -0.62564
C         36.52794        43.70475        -0.85539
C         37.84615        45.90657        -0.87055
C         36.53980        46.49501        -1.05300
C         40.17888        24.87153        -1.40865
C         39.15816        25.31297        -0.86182
C         40.22346        27.45734        -0.72127
C         39.13819        26.58573        -0.01255
C         40.29066        28.83327        -0.10164
C         39.04619        29.50862         0.06431
C         40.26307        31.61151         0.25523
C         39.04042        30.91842         0.25052
C         40.23798        33.11648         0.10422
C         39.02412        33.75348         0.78516
C         40.21201        35.95650         0.52796
C         38.98754        35.24774         0.53697
C         40.18511        37.37357         0.53645
C         38.96548        38.09878         0.51155
C         40.18276        40.31833         0.73760
C         38.93847        39.54424         0.45667
C         40.29145        41.73245         0.29446
C         39.01007        42.45563         0.11649
C         40.28090        44.47945        -0.62532
C         39.04336        43.83764        -0.42992
C         40.33437        45.86727        -0.92797
C         39.08074        46.58577        -0.97588
C         40.37225        48.56855        -1.48087
C         39.30239        47.94986        -1.25473
C         42.75690        24.91557        -1.86110
C         41.50383        25.43252        -1.50449
C         42.77415        27.40443        -0.65030
C         41.55389        26.75169        -0.93021
C         42.74762        28.61773         0.28362
C         41.50603        29.48759         0.08313
C         42.72800        31.64837         0.39631
C         41.50855        30.91167         0.25790
C         42.71149        33.05985         0.57235
C         41.51947        33.80095         0.51647
C         42.70204        35.93899         0.68852
C         41.49785        35.23815         0.59724
C         42.76549        37.39094         0.48429
C         41.45651        38.12300         0.45093
C         42.77030        40.28698         0.83537
C         41.46539        39.55139         0.86811
C         42.77010        41.74811         0.45442
C         41.48311        42.36163         0.06665
C         42.83007        44.41913        -0.63651
C         41.53462        43.63279        -0.75359
C         42.82707        45.74416        -1.08051
C         41.59851        46.52271        -1.19532
C         42.95641        48.42739        -1.72755
C         41.63195        47.93115        -1.50343
C         43.82037        25.55859        -1.60954
C         45.31271        27.36459        -0.59858
C         44.01388        26.77399        -0.95360
C         45.36248        28.79389        -0.02747
C         44.05617        29.43997         0.36504
C         45.29259        31.70964         0.35132
C         44.02479        30.93494         0.49771
C         45.27906        33.07897         0.63159
C         43.98196        33.73495         0.92903
C         45.23839        35.98593         0.88886
C         43.95983        35.25420         0.99457
C         45.24474        37.40283         0.89920
C         44.01944        38.13671         0.76658
C         45.26274        40.27509         0.75544
C         44.03282        39.52682         0.74837
C         45.28245        41.67447         0.47347
C         44.06313        42.39727         0.13000
C         45.31024        44.54591        -0.07756
C         44.05702        43.72173        -0.29708
C         45.41520        45.70008        -1.09700
C         44.14591        46.34915        -1.50238
C         43.98451        47.74889        -1.87873
C         47.55170        27.77388        -1.27466
C         46.53252        27.07465        -1.37072
C         47.74101        29.12853        -0.84366
C         46.55123        29.65994        -0.26370
C         47.74513        31.81938         0.02579
C         46.52549        31.05630         0.03618
C         47.74482        33.18188         0.45120
C         46.48966        33.83177         0.68744
C         47.67468        35.97285         1.05831
C         46.45246        35.26194         0.87663
C         47.65405        37.37171         1.29036
C         46.46422        38.11806         1.10289
C         47.70439        40.27373         1.05555
C         46.48274        39.56265         1.00524
C         47.76532        41.65154         0.72063
C         46.54586        42.35255         0.42425
C         47.83921        44.38425         0.01755
C         46.59057        43.73997         0.09348
C         47.70886        45.72325        -0.49515
C         46.74349        46.34547        -0.95311
C         50.14447        29.51657        -1.54101
C         48.89858        29.89766        -0.96488
C         50.19738        31.97130        -0.39410
C         48.97452        31.23284        -0.42283
C         50.22159        33.27223         0.17192
C         48.99071        33.88219         0.63050
C         50.03024        35.90003         1.68320
C         48.91363        35.23725         1.12529
C         50.14506        37.31906         1.75962
C         48.87659        38.07382         1.70918
C         50.23256        40.25015         1.38342
C         48.91904        39.60261         1.54765
C         50.28053        41.62425         0.98468
C         49.04094        42.32494         0.69449
C         50.36000        44.22200         0.25715
C         49.04498        43.70286         0.30734
C         51.20728        30.11871        -1.76091
C         52.36942        32.41481        -1.53345
C         51.56646        31.29099        -0.87762
C         52.34784        33.48027        -0.89230
C         51.50228        34.03228         0.11153
C         52.74900        36.08390         1.02172
C         51.89420        34.93590         1.07619
C         52.49501        37.18751         1.55563
C         51.36871        38.03821         1.76818
C         52.56407        40.25492         1.45641
C         51.40197        39.46297         1.61627
C         52.66813        41.47240         1.17000
C         51.56794        42.30735         0.87357
C         51.45816        43.66819         0.49633
O         43.92089        34.41917         2.21550
O         40.70315        39.89169         2.05430
O         45.59556        27.58693         0.79150
O         42.16958        37.86851        -0.80465
O         38.25571        42.40046         1.39673
O         42.81276        41.31769         1.86704
O         48.70245        38.96909         2.85344
O         51.02816        35.04984         2.19522
O         44.91287        45.46929        -2.40595
O         44.13509        30.04921         1.69884
O         36.54561        33.81493        -1.44139
H         37.47084        34.01886        -1.70324
O         39.70994        27.73241        -2.05388
H         39.53484        26.87257        -2.49663
O         36.54734        43.44803        -2.30958
H         36.49346        44.31837        -2.76169
O         45.09377        45.23640         1.19172
H         45.00308        44.56359         1.89944
O         52.23135        30.83332         0.25860
H         53.04655        30.35956        -0.00366
O         40.04843        33.37599        -1.32749
H         40.77768        32.93960        -1.81618
O         39.53146        26.28258         1.30503
H         38.78644        25.86125         1.78024
O         41.52340        43.14165        -2.14434
H         41.71550        43.90118        -2.73541
O         39.19676        33.56923         2.21692
H         38.48181        34.05048         2.68270
O         42.56865        28.01965         1.59138
H         42.97525        28.63072         2.24921
