         341
 CSIRO Nanostructure Databank - Neutral Graphene Oxide Data Set
C          1.29161         3.50780        -1.44024
C          0.11523         4.21980        -1.54298
C          1.12827         6.28285        -0.68944
C          0.03975         5.60083        -1.21638
C          1.12409         7.70352        -0.38607
C         -0.04991         8.46225        -0.42743
C          1.10451        10.61691        -0.18988
C         -0.05143         9.87552        -0.38618
C          1.13906        12.05758        -0.14499
C         -0.05091        12.81285        -0.27660
C          1.15749        14.91673        -0.03325
C         -0.04613        14.19315        -0.20070
C          1.16334        16.36107         0.06635
C         -0.03364        17.11086         0.05607
C          1.18599        19.18285         0.42622
C         -0.02170        18.48736         0.23006
C          1.17691        20.60499         0.83379
C          0.00645        21.47856         0.58727
C          1.27698        23.48016         1.40968
C          0.04928        22.79936         0.82430
C          1.25066        24.97296         1.14742
C          0.20609        25.68046         1.60543
C          1.35635        27.83383         1.08809
C          0.03927        27.14612         1.37328
C          1.40849        29.27847         1.20330
C          3.72015         3.49716        -0.95370
C          2.48663         4.13865        -0.97625
C          3.68946         6.32506        -0.34545
C          2.37093         5.52243        -0.47680
C          3.59223         7.78501        -0.43446
C          2.38288         8.41662        -0.26713
C          3.64035        10.61599         0.00544
C          2.34557         9.86014         0.19372
C          3.62362        12.05556         0.14327
C          2.37524        12.76210         0.03240
C          3.62736        14.90774         0.09565
C          2.38374        14.19112         0.04649
C          3.63683        16.33135         0.14119
C          2.40327        17.05757         0.18721
C          3.67705        19.18135         0.34805
C          2.41380        18.47464         0.36528
C          3.72022        20.59343         0.49582
C          2.53557        21.33096         0.93197
C          3.71114        23.50218         0.66976
C          2.53536        22.79641         0.92389
C          3.71276        24.93241         0.61267
C          2.38308        25.63969         0.39643
C          3.71405        27.82437         0.24238
C          2.44769        27.12575         0.67783
C          3.78158        29.27842         0.65640
C          2.56544        29.96592         1.00019
C          6.12495         3.48776        -0.43691
C          4.95126         4.19754        -0.72397
C          5.99679         6.43888        -1.20999
C          4.91771         5.65689        -0.78715
C          6.11416         7.82305        -0.77731
C          4.80939         8.58883        -0.84846
C          6.10348        10.54413         0.14483
C          4.82016         9.92970        -0.17688
C          6.10619        12.06047         0.32838
C          4.83579        12.77636         0.16046
C          6.11591        14.90050         0.07267
C          4.86082        14.19496         0.09409
C          6.12438        16.31152         0.03693
C          4.87811        17.04003         0.09276
C          6.10656        19.18669        -0.33774
C          4.87342        18.45193         0.10746
C          6.13859        20.63662         0.06545
C          4.93807        21.33072         0.31964
C          6.16843        23.45133         0.38015
C          4.95735        22.76089         0.47044
C          6.25135        24.91763         0.72573
C          4.93447        25.66266         0.60676
C          6.29054        27.77276         0.65292
C          4.95952        27.05204         0.60039
C          6.21632        29.26064         0.36537
C          4.97724        29.94667         0.60212
C          8.56524         3.37858        -0.10185
C          7.37247         4.07891        -0.06061
C          8.59418         6.29408        -0.05870
C          7.46859         5.48477         0.46920
C          8.56979         7.67965        -0.24602
C          7.31988         8.42966        -0.39103
C          8.58045        10.55609        -0.06320
C          7.37243         9.85323        -0.14231
C          8.58421        12.01418         0.04364
C          7.37915        12.75581         0.11077
C          8.60229        14.87754         0.04975
C          7.36444        14.17258         0.05528
C          8.60174        16.31081         0.05927
C          7.37957        17.02444         0.01184
C          8.60018        19.16648        -0.10477
C          7.39226        18.44991        -0.07744
C          8.59849        20.61048        -0.11589
C          7.36656        21.33214         0.01348
C          8.61699        23.46377        -0.03469
C          7.38311        22.75187         0.15165
C          8.58292        24.92232        -0.18548
C          7.40263        25.61053         0.01029
C          8.53864        27.82259        -0.55054
C          7.22588        27.07041        -0.36085
C          8.60704        29.26678        -0.21700
C          7.36491        29.94597         0.05935
C         11.02678         3.40170        -0.05295
C          9.83617         4.06664        -0.09983
C         11.06153         6.29751        -0.13157
C          9.81950         5.53652        -0.48967
C         11.06339         7.67431        -0.17561
C          9.81690         8.41998        -0.28415
C         11.09564        10.52492        -0.15063
C          9.83409         9.82467        -0.19125
C         11.11915        11.99619         0.20974
C          9.81307        12.73941         0.03830
C         11.11746        14.88561         0.33825
C          9.82302        14.13740         0.07578
C         11.05719        16.33567        -0.05118
C          9.86092        17.02453        -0.03291
C         11.06511        19.19867        -0.10472
C          9.85406        18.47512        -0.11487
C         11.06511        20.62372        -0.11886
C          9.81214        21.32437        -0.16408
C         11.06671        23.44015        -0.65699
C          9.80098        22.75478        -0.21265
C         11.05509        24.92800        -0.41469
C          9.83784        25.60255        -0.45282
C         11.09207        27.79952        -0.42266
C          9.83444        27.06719        -0.61908
C         11.08115        29.21930        -0.33490
C          9.81858        29.91843        -0.23279
C         13.57407         3.40605         0.01066
C         12.30731         4.13101        -0.37332
C         13.57154         6.26978        -0.02818
C         12.28921         5.52534         0.25658
C         13.53601         7.68838        -0.22946
C         12.33116         8.39315        -0.20437
C         13.58890        10.52871        -0.39403
C         12.30715         9.83605        -0.25697
C         13.57847        11.99683        -0.61437
C         12.28172        12.74534        -0.41589
C         13.55175        14.87352        -0.30248
C         12.34390        14.19594        -0.20622
C         13.58374        16.31505        -0.22536
C         12.30089        17.04053        -0.52634
C         13.52873        19.16440        -0.00689
C         12.33388        18.49686        -0.14540
C         13.53302        20.62074         0.40123
C         12.28922        21.34884        -0.03637
C         13.54187        23.46210        -0.16309
C         12.31991        22.73104        -0.20993
C         13.51803        24.89417        -0.25075
C         12.29886        25.62652        -0.34292
C         13.51329        27.80113        -0.19056
C         12.30289        27.08040        -0.32619
C         13.53492        29.22371        -0.18663
C         12.30195        29.91432        -0.23810
C         15.96793         3.45160         0.60928
C         14.74158         4.10348         0.18333
C         16.05494         6.25420        -0.09252
C         14.75393         5.55850         0.02987
C         16.01975         7.75460         0.15176
C         14.82940         8.35946        -0.62160
C         16.05796        10.56785        -0.87788
C         14.77234         9.85915        -0.50367
C         16.07017        12.02260        -0.44191
C         14.83939        12.73428        -0.46528
C         16.01295        14.85538        -0.11814
C         14.81301        14.14913        -0.32700
C         16.03386        16.27825        -0.07755
C         14.77971        17.01056        -0.12804
C         15.99377        19.17316         0.07732
C         14.79492        18.46127        -0.03702
C         16.00863        20.61820         0.03974
C         14.82046        21.33445         0.05958
C         16.00485        23.49169        -0.25373
C         14.79637        22.77395        -0.06688
C         15.96848        24.91104        -0.37955
C         14.76331        25.59414        -0.25438
C         16.05891        27.81865        -0.03654
C         14.75694        27.05374        -0.01675
C         16.01749        29.28570        -0.21460
C         14.78998        29.93387        -0.19191
C         18.27768         3.51436         1.43221
C         17.16296         4.10933         0.71469
C         18.58391         6.26396         0.48908
C         17.31778         5.49124         0.19571
C         18.59389         7.75787         0.34595
C         17.33489         8.47870        -0.08654
C         18.50922        10.61119        -0.43668
C         17.30553         9.81294        -0.42422
C         18.52477        11.98389        -0.15275
C         17.26453        12.67760        -0.14873
C         18.52685        14.83716         0.02058
C         17.24286        14.10687         0.31808
C         18.51223        16.24358        -0.14348
C         17.25691        16.96372        -0.06699
C         18.55715        19.15530        -0.18304
C         17.27250        18.42913         0.09630
C         18.53152        20.62407        -0.38903
C         17.32996        21.36382         0.15439
C         18.44300        23.47310        -0.60530
C         17.26830        22.79824        -0.31697
C         18.48546        24.91144        -0.67249
C         17.19573        25.66209        -0.83616
C         18.47379        27.78342        -0.50945
C         17.28641        27.09279        -0.38637
C         18.47308        29.24048        -0.45107
C         17.27252        29.94873        -0.37016
C         19.37153         4.21191         1.79358
C         19.92691         6.52517         2.59868
C         19.66428         5.63490         1.39195
C         19.99838         7.86979         2.43668
C         19.60526         8.48725         1.18833
C         20.88896        10.71634         1.31124
C         20.10397         9.69476         0.71445
C         20.81911        12.04739         0.88452
C         19.74728        12.66964         0.20247
C         20.94919        14.84354        -0.12936
C         19.74774        14.12628         0.04501
C         20.93229        16.21597        -0.38222
C         19.73076        16.93365        -0.40016
C         20.91833        19.14577        -0.99834
C         19.63521        18.36164        -0.90327
C         20.89268        20.49476        -1.01183
C         19.67927        21.26346        -0.75398
C         20.92107        23.48015        -0.42878
C         19.71837        22.75559        -0.98931
C         20.90988        24.82915        -0.35870
C         19.69563        25.59711        -0.61895
C         20.90296        27.78138        -0.77304
C         19.72652        27.05669        -0.66167
C         20.89624        29.20395        -0.74776
C         19.73101        29.91470        -0.58591
O          6.12015        11.15982         1.48562
O         19.16595         6.88375        -0.70240
O         16.86278         5.72428        -1.17684
O         19.71799         9.96463        -0.63474
O          6.73959         5.88143         1.37456
O          1.83512        20.77755         2.12519
O         12.69669        12.33834        -1.75370
O         15.46848        27.37682         1.24754
O         18.24025        18.80330         1.20165
O          3.01957         5.75131         0.81136
O         20.90759         5.58479         0.64910
H         20.78215         6.17259        -0.13632
O          6.51715        27.11880        -1.63660
H          7.21420        27.07919        -2.33420
O          6.60195        24.95550         2.16525
H          7.39911        24.39650         2.29048
O         15.07060         8.05669        -2.03183
H         14.22334         8.16557        -2.51316
O          9.11057        27.51387        -1.86828
O          2.24180         9.73679         1.66136
H          3.00109         9.19645         1.97028
O         19.82054        22.89207        -2.45115
H         19.80075        23.85146        -2.65443
O         11.28081        14.86245         1.80562
H         11.37501        13.90889         2.05706
O         12.33208         4.33126        -1.83238
H         12.54888         3.47046        -2.24884
O         15.74517         7.89039         1.57492
H         15.63090         8.84313         1.77801
O         11.40580        12.03827         1.66090
H         10.66620        11.58487         2.12067
O         12.18673        17.02488        -2.00412
H         12.97371        17.48760        -2.36376
O         16.99087        25.77543        -2.30865
H         17.77562        26.23628        -2.67648
O          1.22078        23.30797         2.85371
H          1.33633        22.34161         3.02791
O          5.99542        19.21871        -1.82632
H          5.17524        19.71228        -2.04220
O         -0.64013        27.70834         2.49581
H         -0.80422        28.65737         2.32873
O         12.21560         5.32603         1.70154
H         12.24871         6.20678         2.12996
O         17.13825        14.03346         1.80115
H         17.16631        14.95657         2.13391
O         19.12445        18.24853        -2.27619
H         19.82635        17.84312        -2.82742
O         11.07656        23.31072        -2.12939
H         10.30884        23.81689        -2.47237
O         16.12428        10.57895        -2.33348
H         16.00083         9.64188        -2.62267
O          3.70710        27.79626        -1.24471
H          4.65007        27.72492        -1.54236
O          2.10941        25.50920        -1.04008
H          2.63454        26.22474        -1.48086
O         13.48116        20.61822         1.87752
H         14.33537        20.25827         2.19934
O         17.57216        21.45268         1.60378
H         17.81329        20.53678         1.89305
O          4.61316         8.88146        -2.28554
H          4.59291         8.02609        -2.76568
O          9.79260         5.53126        -1.97323
H         10.65694         5.12839        -2.24850
O          6.87158        27.66647         1.97198
H          6.75836        26.73230         2.28770
O          6.92851         5.86935        -2.01661
H          7.71507         6.43982        -2.15268
H          1.33024         2.45277        -1.74739
H         -0.78690         3.72315        -1.92677
H         -0.91074         6.12393        -1.39142
H         -1.01538         7.95620        -0.56864
H         -1.01463        10.37972        -0.54789
H         -1.01177        12.30040        -0.41685
H         -1.00379        14.72324        -0.28404
H         -1.00370        16.60903        -0.05212
H         -0.97788        19.02696         0.26487
H         -0.90076        21.02822         0.15777
H         -0.84238        23.41530         0.63185
H         -0.58913        25.17796         2.17628
H         -0.61686        27.28521         0.45262
H          0.49374        29.82151         1.48382
H          3.76515         2.41623        -1.15763
H          2.60082        31.05659         1.14086
H          6.09883         2.39041        -0.54378
H          5.00116        31.03831         0.75017
H          8.56099         2.28923        -0.27431
H          7.34659        31.04559         0.00289
H         11.05056         2.31651         0.13595
H          9.84637        31.00145        -0.03800
H         13.57215         2.30616         0.06473
H         12.29565        31.01337        -0.19173
H         15.89522         2.41317         0.96775
H         14.76131        31.03253        -0.25263
H         18.16547         2.46713         1.75337
H         17.29099        31.04747        -0.43209
H         20.16303         3.71191         2.37196
H         20.25059         6.06105         3.54161
H         20.39705         8.51157         3.23872
H         21.55923        10.46327         2.14519
H         21.57885        12.72762         1.30219
H         21.91029        14.31056        -0.12919
H         21.88595        16.72824        -0.57196
H         21.86080        18.61809        -1.20654
H         21.82202        21.05197        -1.20020
H         21.83854        22.92187        -0.19218
H         21.81117        25.36829        -0.03246
H         21.86597        27.26384        -0.88362
H         21.85214        29.73690        -0.84955
H         19.74977        31.01379        -0.55897
