         344
 CSIRO Nanostructure Databank - Neutral Graphene Oxide Data Set
C          1.33065         2.07187         1.07109
C          1.33274         3.43403         1.25133
C          2.53064         1.35110         0.88904
C          2.62975         4.16419         1.47674
C          1.45579         6.38170         1.57937
C          1.41734         7.78043         1.46014
C          2.58319         5.65469         1.21682
C          2.53549         8.49419         1.03215
C          1.26779        10.63526         0.82755
C          1.22646        12.01642         0.66019
C          2.50111         9.95193         0.85629
C          2.39771        12.75762         0.48325
C          1.27789        14.92136         1.16250
C          1.37651        16.23102         1.49052
C          2.29238        14.25091         0.26435
C          2.52371        17.02400         1.11177
C          2.58741        18.40822         1.36568
C          3.75994         2.04361         0.69118
C          3.78913         3.46923         0.81090
C          4.93241         1.34917         0.31502
C          4.93248         4.18389         0.41289
C          3.74668         6.35027         0.76990
C          3.73361         7.77851         0.72589
C          4.93937         5.64480         0.40215
C          4.94605         8.48878         0.46081
C          3.69084        10.67503         0.64291
C          3.64957        12.08154         0.41989
C          5.01985         9.97061         0.77767
C          4.85040        12.79999         0.07761
C          3.61870        14.95649         0.29773
C          3.65334        16.36239         0.52559
C          4.82411        14.24301        -0.00925
C          4.82133        17.11033         0.23947
C          3.73300        19.13461         1.07301
C          4.87701        18.49532         0.51610
C          6.10687         2.04731        -0.02711
C          6.06946         3.47409        -0.04315
C          7.33673         1.34767        -0.26497
C          7.21026         4.21742        -0.57739
C          6.09818         6.36453         0.04931
C          6.10463         7.79068         0.15610
C          7.31018         5.67023        -0.36903
C          7.43557         8.50735         0.14873
C          6.15384        10.68031         0.07633
C          6.08028        12.09308        -0.16029
C          7.32767         9.98106        -0.18937
C          7.24414        12.78137        -0.57252
C          5.97735        14.95919        -0.34557
C          5.94761        16.45594        -0.50548
C          7.20613        14.26432        -0.85644
C          7.29235        17.13459        -0.28272
C          6.09895        19.21602         0.32223
C          7.29593        18.57388        -0.00899
C          8.53445         2.00265        -0.55293
C          8.49705         3.44888        -0.87479
C          9.78417         1.33913        -0.50884
C          9.74288         4.21818        -0.91886
C          8.49719         6.33153        -0.63719
C          8.43839         7.83252        -0.79951
C          9.74479         5.61742        -0.87797
C          9.76014         8.54045        -0.73530
C          8.50155        10.66343        -0.60156
C          8.48394        12.08649        -0.71181
C          9.75003         9.94153        -0.78172
C          9.71824        12.78768        -0.86961
C          8.47180        14.94113        -0.29864
C          8.45922        16.45451        -0.45409
C          9.69562        14.26649        -0.89681
C          9.75356        17.22216        -0.70977
C          8.53773        19.24821         0.13481
C          9.76571        18.59925        -0.07700
C         11.00182         2.01029        -0.74321
C         10.97252         3.44509        -1.11761
C         12.23955         1.37221        -0.60460
C         12.28342         4.21183        -1.16265
C         11.00721         6.33411        -0.87787
C         11.03647         7.79707        -0.47403
C         12.23118         5.67048        -0.95249
C         12.26880         8.50824        -0.96910
C         10.96104        10.66946        -0.94336
C         10.96274        12.09248        -0.89940
C         12.21061         9.95750        -1.37681
C         12.21713        12.79125        -0.84736
C         10.97663        15.02558        -0.93561
C         10.97173        16.38892        -0.25537
C         12.25967        14.25945        -0.99215
C         12.27903        17.14596        -0.33554
C         10.99536        19.22602         0.13325
C         12.25290        18.55909        -0.05547
C         13.48472         2.07436        -0.62619
C         13.51892         3.49440        -0.82035
C         14.68957         1.40169        -0.34009
C         14.71751         4.21480        -0.71547
C         13.48886         6.36953        -0.86030
C         13.48295         7.81061        -0.96439
C         14.72212         5.66443        -0.83093
C         14.74287         8.48921        -1.05927
C         13.45808        10.69019        -0.98037
C         13.44635        12.06548        -0.75154
C         14.76110         9.98756        -1.26105
C         14.72323        12.79290        -0.60368
C         13.52508        15.01536        -0.75859
C         13.48391        16.47081        -0.43810
C         14.70505        14.25456        -0.20670
C         14.73362        17.15725        -0.27872
C         13.46732        19.24931         0.05201
C         14.71685        18.57995        -0.06194
C         15.91979         2.09119        -0.28656
C         15.94222         3.51228        -0.51106
C         17.13105         1.40619         0.00021
C         17.17981         4.20704        -0.56536
C         15.96442         6.36320        -0.86040
C         15.95281         7.79742        -0.97575
C         17.21179         5.63427        -0.80241
C         17.21136         8.54606        -0.86073
C         15.88161        10.61740        -0.45116
C         15.90758        12.12405        -0.63625
C         17.18896         9.89906        -0.65455
C         17.20376        12.84665        -0.90824
C         16.00098        15.00217        -0.44360
C         15.97141        16.46142        -0.32881
C         17.16781        14.33337        -0.63303
C         17.19028        17.18192        -0.23988
C         15.93743        19.27814         0.05316
C         17.17612        18.60844        -0.04274
C         18.35761         2.08213         0.00844
C         18.38011         3.48687        -0.31800
C         19.59019         1.41739         0.29058
C         19.62534         4.14709        -0.44147
C         18.45382         6.28381        -0.98471
C         18.51499         7.78090        -0.67334
C         19.64906         5.49386        -0.91102
C         19.70084         8.62648        -1.11210
C         18.42570        10.63262        -0.20496
C         18.42546        12.14709        -0.36654
C         19.63706        10.10490        -0.95141
C         19.61469        12.80760        -0.26181
C         18.47927        15.06491        -0.79153
C         18.45068        16.50540        -0.32839
C         19.60568        14.29278        -0.11888
C         19.63531        17.19657        -0.12987
C         18.40934        19.31091         0.02830
C         19.63620        18.63005         0.00190
C         20.82391         2.07037         0.20479
C         20.86263         3.46609        -0.20503
C         22.04634         1.41996         0.54994
C         22.09053         4.14222        -0.30514
C         20.93708         5.98801        -1.24876
C         20.97828         8.13646        -1.42173
C         22.14818         5.49532        -0.75036
C         22.20248         8.59743        -0.92447
C         20.91268        10.72336        -0.41973
C         20.88159        12.06171        -0.16937
C         22.14982         9.88976        -0.14158
C         22.15920        12.80546        -0.09618
C         20.85356        15.03399         0.18192
C         20.98186        16.50672        -0.20567
C         22.13794        14.27780         0.07802
C         22.05550        17.23367         0.66149
C         20.88829        19.31989        -0.03185
C         22.13862        18.69413         0.15995
C         23.29108         2.04795         0.40057
C         23.36368         3.35192        -0.35453
C         24.49740         1.43350         0.75617
C         24.59481         4.18637        -0.10406
C         23.39310         6.28067        -0.73486
C         23.40726         7.77267        -0.81596
C         24.56732         5.60128        -0.38062
C         24.60162         8.46399        -0.60275
C         23.41574        10.68942        -0.29054
C         23.43531        12.04361        -0.03174
C         24.63311         9.94794        -0.61203
C         24.67210        12.76646         0.13244
C         23.33746        14.94703         0.64002
C         23.35658        16.41526         0.71255
C         24.63649        14.15927         0.64496
C         24.56899        16.94401         1.08280
C         23.30083        19.43387        -0.11807
C         24.62296        19.01530         0.27313
C         25.73954         2.11721         0.64083
C         25.76498         3.52535         0.26084
C         26.93235         1.46162         0.96282
C         27.01887         4.25272         0.39915
C         25.90752         6.30584        -0.51746
C         25.86836         7.78693        -0.12119
C         27.05807         5.60987         0.16794
C         27.19155         8.50000        -0.53251
C         25.95877        10.71804        -0.42372
C         25.89576        12.12037         0.02635
C         27.19193         9.97072        -0.17250
C         27.13879        12.80877         0.29796
C         25.88986        14.92950         0.65850
C         25.83558        16.29062         0.89826
C         27.13751        14.22054         0.50081
C         27.06734        17.17480         0.89376
C         25.80755        19.14498        -0.39231
C         27.05945        18.30420        -0.17363
C         28.18675         2.13429         0.95928
C         28.22978         3.53175         0.74461
C         29.40724         1.41755         1.17103
C         29.48684         4.21273         0.74347
C         28.25299         6.40256         0.63127
C         28.37881         7.79126         0.07265
C         29.54397         5.62371         0.58900
C         29.58071         8.48257         0.28178
C         28.36459        10.65151         0.13167
C         28.36215        12.09399         0.29517
C         29.61088         9.92707         0.25477
C         29.59676        12.79979         0.44668
C         28.35608        14.93872         0.59548
C         28.34836        16.36866         0.67216
C         29.59907        14.22978         0.53840
C         29.53751        17.08150         0.57175
C         28.30686        19.14655         0.05879
C         29.49025        18.53633         0.40333
C         30.62158         2.05979         1.12540
C         30.69337         3.46850         0.90954
C         31.93236         4.16088         0.87422
C         30.77528         6.30022         0.61591
C         30.79814         7.75753         0.56084
C         31.97271         5.53130         0.72525
C         31.98546         8.48699         0.73398
C         30.82325        10.62524         0.45705
C         30.83233        12.08432         0.48200
C         32.00571         9.87686         0.67397
C         32.02896        12.81961         0.56498
C         30.83065        14.94818         0.59211
C         30.81371        16.40590         0.58674
C         32.03061        14.21144         0.60190
C         31.97403        17.17540         0.61046
C         30.73167        19.26632         0.47512
C         31.92305        18.59648         0.58531
O         13.14845        14.68997        -2.12154
O         23.81854        14.28985         1.87167
O         11.64092         3.74128        -2.39630
O         24.62207        18.28389         1.48158
O         19.94048        14.70551         1.26187
O         10.17340        14.88251        -2.15039
O         22.28905        13.74315        -1.27227
O         25.38024        10.49230        -1.76916
O          7.56601         3.80362        -1.94877
O         21.00578         6.98187        -2.21389
O         19.45982        10.64741        -2.31899
H         20.18260        10.29445        -2.88158
O          9.84272        17.48237        -2.12791
H          9.83427        16.60826        -2.58959
O         26.18484         6.23954        -1.94975
H         26.08525         5.30433        -2.22719
O         15.03248        10.21299        -2.67361
H         14.19909         9.98975        -3.15538
O         25.80544         7.90294         1.32240
H         25.09230         7.31575         1.65014
O          8.46468        14.66757         1.12181
H          9.27239        15.09239         1.50408
O         27.17835        17.81186         2.18786
H         27.07473        17.12552         2.87813
O         21.44030        16.54537        -1.57246
H         20.75619        16.10606        -2.12961
O         14.48859        14.24975         1.24035
H         15.19915        13.71656         1.65506
O         27.26363        17.61936        -1.44637
H         27.39888        18.29606        -2.14181
O         18.55659        10.38483         1.23443
H         19.43411        10.72809         1.51572
O          7.24804        14.45806        -2.31185
H          6.58998        13.85189        -2.71363
O         23.48630         2.95296        -1.77826
H         22.70984         2.38971        -1.98603
O         15.55471        10.40746         0.95964
H         16.39121        10.47881         1.47159
O         27.34819         8.48379        -1.97526
H         26.63687         9.06016        -2.34504
O          5.67117        16.69161        -1.93819
H          6.35134        16.17124        -2.43384
O         18.82404        15.09747        -2.21417
H         18.40351        14.29925        -2.62741
O          7.94293         8.42145         1.50092
H          7.32141         8.92656         2.07386
O          2.88786         4.05165         2.93626
H          2.93410         3.09308         3.14179
O          7.90036         8.06624        -2.14134
H          8.42729         7.53746        -2.77728
O         28.01793         6.60570         2.09523
H         28.76906         7.13900         2.43451
O         22.04340         9.52027         1.28665
H         22.39098        10.26627         1.82056
O          1.78765        14.41694        -1.11777
H          1.77273        15.37982        -1.30639
O         17.40470        12.73281        -2.37396
H         17.86535        11.87601        -2.55320
O         12.20430         9.96067        -2.88393
H         11.94526        10.86535        -3.16692
O          5.38912        10.02000         2.21244
H          4.62940         9.65939         2.71871
O         10.79584        16.09877         1.17392
H         10.94287        16.93456         1.66742
O         11.15668         7.77867         1.00889
H         12.03363         7.39281         1.22224
O         18.70123         7.69993         0.79389
H         18.61888         8.61769         1.16364
O         21.53496        17.26710         2.00588
H         22.21528        17.67272         2.58294
H          0.37488         1.52766         1.04339
H          0.37966         3.96234         1.39309
H          2.50383         0.25880         0.77269
H          0.56997         5.86704         1.97549
H          0.49468         8.30456         1.74307
H          0.32448        10.08350         0.93131
H          0.24995        12.51890         0.63980
H          0.38632        14.35495         1.46744
H          0.58181        16.71588         2.07802
H          1.71752        18.91116         1.81280
H          4.92046         0.25015         0.27520
H          3.77318        20.21212         1.28734
H          7.35057         0.25896        -0.10497
H          6.12029        20.28681         0.57621
H          9.80798         0.27148        -0.24263
H          8.53537        20.28996         0.49189
H         12.25661         0.29568        -0.37644
H         11.01092        20.28012         0.45152
H         14.67166         0.31729        -0.15622
H         13.45842        20.33336         0.23947
H         17.10089         0.32489         0.20061
H         15.92282        20.36532         0.22096
H         19.56281         0.35490         0.57650
H         18.39627        20.40760         0.11548
H         22.00420         0.40699         0.97914
H         20.87007        20.40644        -0.21333
H         24.48917         0.41439         1.17234
H         23.18650        20.36692        -0.69384
H         26.90406         0.39135         1.21756
H         25.80283        19.70848        -1.34028
H         29.36001         0.33277         1.34560
H         28.29648        20.21634        -0.20198
H         31.55448         1.49486         1.26675
H         32.86741         3.59177         0.97965
H         32.94905         6.03401         0.70604
H         32.92944         7.96192         0.93276
H         32.96279        10.39059         0.83334
H         32.99638        12.30000         0.57991
H         32.99712        14.73202         0.64088
H         32.96102        16.69497         0.65578
H         30.70897        20.36388         0.41274
H         32.86729        19.15800         0.62682
