         424
 CSIRO Nanostructure Databank - Neutral Graphene Oxide Data Set
C          1.16489         3.65987         1.30068
C         -0.02922         4.34316         1.15034
C          1.15611         6.40959         0.59259
C         -0.03935         5.70281         0.79682
C          1.17350         7.81443         0.19763
C         -0.01923         8.49310        -0.14329
C          1.17858        10.56889        -0.59740
C         -0.01350         9.83175        -0.52202
C          1.18557        12.00490        -0.80641
C         -0.03490        12.74255        -0.78876
C          1.17728        14.84833        -1.00260
C         -0.03470        14.11056        -0.89026
C          1.16642        16.27613        -1.03717
C         -0.04980        17.01412        -0.91016
C          1.14490        19.13426        -0.98990
C         -0.06559        18.38467        -0.87824
C          1.15733        20.55248        -0.89136
C         -0.05484        21.33891        -0.94518
C          1.16060        23.29036        -0.02655
C         -0.06213        22.66132        -0.64510
C          1.13787        24.79880        -0.01453
C          0.07787        25.46747         0.56144
C          1.21091        27.64593         0.37926
C          0.07273        26.87279         0.68296
C          1.24482        29.07704         0.61478
C          0.08998        29.78396         1.01354
C          1.39449        31.80313         1.36748
C          0.15755        31.12113         1.36354
C          1.52740        33.17659         2.00257
C          0.24369        33.95854         2.10818
C          1.37560        36.09150         1.67098
C          0.19906        35.30135         1.99615
C          1.30680        37.51169         1.61346
C          3.63145         3.65091         1.25439
C          2.40292         4.33273         1.10998
C          3.63412         6.41319         0.59149
C          2.39664         5.72489         0.76427
C          3.64695         7.82161         0.30911
C          2.40447         8.51163         0.10815
C          3.63151        10.57829        -0.45850
C          2.42620         9.89819        -0.31569
C          3.66655        11.91263        -1.15046
C          2.39758        12.70360        -0.95091
C          3.65566        14.83071        -1.18566
C          2.42063        14.12581        -1.05645
C          3.65381        16.27042        -1.27812
C          2.39179        16.99946        -1.18338
C          3.58655        19.17585        -1.44773
C          2.36193        18.40777        -1.18529
C          3.63155        20.59542        -1.07984
C          2.41218        21.26123        -0.80972
C          3.63024        23.36689        -0.67152
C          2.42704        22.66128        -0.56532
C          3.60504        24.84011        -0.76506
C          2.28923        25.57844        -0.47527
C          3.59900        27.70094        -0.29820
C          2.37786        26.99981        -0.11742
C          3.64510        29.09839        -0.00339
C          2.47566        29.78447         0.47851
C          3.89521        31.81860         1.02075
C          2.53862        31.14810         0.90760
C          3.81000        33.33381         1.03859
C          2.66869        33.98100         1.40730
C          3.73437        36.21454         1.04436
C          2.58563        35.43861         1.39395
C          3.66134        37.64039         1.00539
C          2.41566        38.26812         1.29543
C          6.09285         3.63066         1.19002
C          4.85815         4.31227         1.05925
C          6.09413         6.39477         0.52079
C          4.86070         5.71568         0.72801
C          6.10227         7.79979         0.24600
C          4.87931         8.50212         0.18450
C          6.16104        10.60223        -0.41883
C          4.88826        10.00596         0.12628
C          6.14385        12.00654        -0.75348
C          4.93310        12.69746        -0.90737
C          6.14046        14.80749        -1.21134
C          4.91749        14.11550        -1.12240
C          6.15411        16.24790        -1.63303
C          4.86311        16.96388        -1.35991
C          6.14734        19.15627        -1.21990
C          4.90355        18.41672        -1.52642
C          6.12305        20.55518        -1.06843
C          4.86891        21.28125        -1.01596
C          6.11422        23.43121        -0.79198
C          4.86940        22.69102        -0.83181
C          6.10690        24.86657        -0.72665
C          4.85746        25.59903        -0.68903
C          6.07183        27.75207        -0.95881
C          4.81443        26.98744        -0.62709
C          6.04797        29.18873        -0.50162
C          4.88297        29.82623        -0.16403
C          6.13514        32.04694        -0.17296
C          4.79248        31.33807        -0.13991
C          6.05468        33.55552        -0.18852
C          5.11446        34.08153         0.90543
C          6.09679        36.32740         0.43559
C          4.96165        35.57567         0.75157
C          6.04238        37.75135         0.44391
C          4.83633        38.38512         0.71068
C          8.54913         3.60926         1.12048
C          7.31556         4.28966         0.97633
C          8.54734         6.35204         0.34211
C          7.32426         5.68771         0.61805
C          8.53755         7.72517        -0.05787
C          7.34995         8.46112        -0.03951
C          8.61164        10.54332        -0.64044
C          7.34279         9.88121        -0.37482
C          8.59649        11.96449        -0.90924
C          7.40099        12.69115        -0.93883
C          8.59403        14.86925        -1.17508
C          7.38992        14.12735        -1.13947
C          8.60285        16.30685        -1.09513
C          7.38714        17.00818        -1.19698
C          8.58252        19.14104        -0.84562
C          7.36535        18.42797        -1.09482
C          8.55267        20.55221        -0.70647
C          7.34638        21.26923        -0.83778
C          8.58660        23.42771        -0.75594
C          7.33323        22.71768        -0.76436
C          8.57717        24.87460        -0.71221
C          7.33141        25.57752        -0.65605
C          8.53538        27.70025        -0.38583
C          7.34570        27.01609        -0.59343
C          8.60377        29.17948        -0.50079
C          7.31121        29.93951        -0.61227
C          8.64977        32.09870        -0.49162
C          7.30803        31.39422        -0.33916
C          8.60377        33.53600        -0.01340
C          7.38902        34.24346        -0.00314
C          8.57633        36.35971         0.30608
C          7.36459        35.63231         0.22566
C          8.57872        37.80079         0.31449
C          7.28088        38.56157         0.12613
C         11.00107         3.59473         1.16276
C          9.77009         4.27199         0.92630
C         11.02885         6.32142         0.34757
C          9.78688         5.64892         0.50853
C         11.06971         7.68299        -0.10458
C          9.79673         8.31006        -0.65542
C         11.08302        10.48368        -0.95643
C          9.79977         9.82313        -0.65237
C         11.13756        11.96508        -0.97366
C          9.85619        12.63910        -1.24296
C         11.13459        14.86348        -1.03868
C          9.86850        14.16848        -1.32575
C         11.11179        16.28633        -0.93575
C          9.84705        17.01952        -0.96794
C         11.06424        19.17915        -0.76317
C          9.82912        18.42328        -0.83496
C         11.07408        20.54237        -0.58890
C          9.79796        21.27900        -0.24982
C         11.05171        23.37975        -0.94906
C          9.79431        22.71679        -0.69761
C         11.05583        24.95258        -0.84085
C          9.77876        25.60121        -0.58760
C         11.00043        27.66786        -0.01127
C          9.78444        26.99384        -0.28310
C         10.96150        29.07356         0.56485
C          9.80444        29.90397        -0.00618
C         10.94291        31.96630         0.73293
C          9.80076        31.26129         0.07915
C         10.96141        33.45980         0.78645
C          9.78537        34.22452         0.30587
C         11.04167        36.34329         0.52845
C          9.79276        35.63630         0.41346
C         11.03439        37.77375         0.42837
C          9.77704        38.47122         0.35587
C         13.45278         3.58512         1.33423
C         12.22084         4.25243         1.04116
C         13.49001         6.30544         0.51790
C         12.25090         5.63903         0.63575
C         13.52837         7.67998         0.12489
C         12.29208         8.33473        -0.21169
C         13.61356        10.46883        -0.54376
C         12.36501         9.71020        -0.75139
C         13.60517        11.92497        -0.85354
C         12.31661        12.66924        -0.92515
C         13.56307        14.85431        -0.71651
C         12.33865        14.13353        -0.92407
C         13.55189        16.27870        -0.68479
C         12.32891        16.98009        -0.82035
C         13.50686        19.11928        -0.25552
C         12.37440        18.47358        -1.04735
C         13.55504        20.60218        -0.50338
C         12.33526        21.28259        -0.59677
C         13.53697        23.42782        -0.71486
C         12.33759        22.70016        -0.71572
C         13.53904        24.88796        -0.58972
C         12.29270        25.61245        -0.44823
C         13.49347        27.68423         0.21628
C         12.23171        26.96087        -0.04900
C         13.47719        29.17229         0.24894
C         12.27358        29.81927         0.43784
C         13.49266        32.03488         0.55766
C         12.27137        31.23135         0.97446
C         13.49946        33.42581         0.62038
C         12.27355        34.18845         1.08395
C         13.47980        36.32286         0.49476
C         12.25878        35.63650         0.63087
C         13.48102        37.75726         0.37438
C         12.25246        38.46140         0.39197
C         15.89691         3.55190         1.55889
C         14.67358         4.22382         1.20595
C         15.94601         6.25502         0.57885
C         14.72427         5.60936         0.76679
C         16.01206         7.67129         0.28205
C         14.75843         8.37714         0.06682
C         16.03192        10.52981         0.19811
C         14.76104         9.80336        -0.17950
C         16.08176        11.99732        -0.14797
C         14.85604        12.70043        -0.59550
C         15.99633        14.87161        -0.32335
C         14.80845        14.17553        -0.50125
C         16.02631        16.29734        -0.42210
C         14.80038        17.00566        -0.54852
C         16.02964        19.13277        -0.48731
C         14.81820        18.41828        -0.48738
C         16.03293        20.58137        -0.52991
C         14.78807        21.29987        -0.55442
C         16.02900        23.41770        -0.75245
C         14.78476        22.72369        -0.66424
C         16.02766        24.91774        -0.97135
C         14.74148        25.56768        -0.52744
C         16.00295        27.77984        -0.47754
C         14.78479        26.97056        -0.08379
C         15.99496        29.19529         0.07772
C         14.73196        29.88422         0.23846
C         15.93967        32.03391         0.36957
C         14.72517        31.31653         0.38409
C         15.94459        33.44862         0.32689
C         14.71175        34.15873         0.43323
C         15.93324        36.29325         0.24070
C         14.71928        35.59347         0.42087
C         15.92994        37.73614         0.17292
C         14.70981        38.43976         0.25004
C         18.35404         3.51108         1.76500
C         17.12048         4.15181         1.38561
C         18.52381         6.18446         0.66425
C         17.19197         5.47685         0.72664
C         18.59088         7.65596         0.25884
C         17.23847         8.33836         0.22054
C         18.52048        10.52542         0.22467
C         17.29475         9.77306        -0.25439
C         18.57646        11.97820        -0.16153
C         17.23968        12.68466        -0.02435
C         18.52211        14.87740        -0.09314
C         17.22428        14.17393         0.20549
C         18.51842        16.27706        -0.29355
C         17.26673        17.00426        -0.39499
C         18.51337        19.13945        -0.55761
C         17.27083        18.41709        -0.49121
C         18.50882        20.56229        -0.63683
C         17.25041        21.28753        -0.62292
C         18.50889        23.49849        -0.94530
C         17.23066        22.71423        -0.73817
C         18.46632        24.78299        -0.09081
C         17.24716        25.61616        -0.40325
C         18.49314        27.67495         0.05426
C         17.26713        26.98112        -0.21172
C         18.49092        29.11476         0.49600
C         17.18741        29.84894         0.30128
C         18.44287        32.02912         0.09105
C         17.22884        31.31538         0.66010
C         18.41585        33.44374        -0.02617
C         17.17990        34.16549         0.16464
C         18.38293        36.30372        -0.14541
C         17.16795        35.58043         0.09306
C         18.36580        37.73748        -0.17780
C         17.14615        38.42797        -0.00688
C         19.53766         4.19303         1.80697
C         20.59768         6.40775         1.98421
C         19.62053         5.59043         1.46230
C         20.55233         7.82729         1.81580
C         19.59578         8.46146         1.06543
C         20.69102        10.71891         1.30544
C         19.58498         9.91340         0.87133
C         20.73621        12.09542         1.09402
C         19.71144        12.76606         0.42353
C         20.95389        14.90944         0.09407
C         19.73405        14.18250         0.14135
C         20.95953        16.26328        -0.17162
C         19.75225        16.98614        -0.35783
C         20.95312        19.14680        -0.66932
C         19.74743        18.42184        -0.53823
C         20.94895        20.52709        -0.74547
C         19.74403        21.26372        -0.69583
C         20.92098        23.41458        -0.40265
C         19.77050        22.71278        -0.65084
C         20.92838        24.84572        -0.30564
C         19.76499        25.56101        -0.19621
C         20.92813        27.76900        -0.05409
C         19.73331        27.00456        -0.03267
C         20.88758        29.16572        -0.13589
C         19.69656        29.87952        -0.00018
C         20.79265        32.04506        -0.55672
C         19.63890        31.31584        -0.15031
C         20.78065        33.42087        -0.63206
C         19.60712        34.15952        -0.34974
C         20.77976        36.35688        -0.60560
C         19.60411        35.60949        -0.37457
C         20.76019        37.75594        -0.61350
C         19.57463        38.44690        -0.40578
O          9.87947        13.33029        -2.53588
O         11.78888         9.85200        -2.11096
O         11.09286        24.24497        -2.11924
O          8.11462        29.62258        -1.84107
O         18.06918         5.38975        -0.47866
O          2.72517        25.28253        -1.85460
O          4.21853        18.88529        -2.75083
O         10.51108        32.66201         1.95704
O         14.33374        27.14043         1.29854
O         14.50741        12.25963        -1.97550
O          3.70525        11.60011        -2.60119
H          3.75460        12.45475        -3.08116
O          8.90323        32.20829        -1.92802
H          8.78724        31.29633        -2.29727
O         16.10758        25.12860        -2.43482
H         16.01636        26.10614        -2.57536
O          1.12563        22.90965         1.40229
H          1.05880        21.93117         1.43679
O          5.82739        33.85142         2.15853
H          5.21452        34.04215         2.89842
O          4.48359        31.37200         2.26536
H          3.86098        31.62534         2.98296
O          9.77192         7.92486        -2.07537
H         10.50372         8.43183        -2.50717
O         18.66730        29.04532         1.98884
H         19.58455        28.73099         2.14541
O         15.90261        27.91709        -1.94045
H         16.66645        28.45317        -2.24356
O         12.68307        18.66099        -2.45490
H         11.98072        18.22816        -2.98370
O          1.95503        32.89257         3.39149
H          1.86650        33.72779         3.89853
O         18.33538        24.34658         1.29839
H         18.25225        25.14886         1.85577
O          6.08981        27.83448        -2.43124
H          6.89333        28.35944        -2.66568
O         19.08346         7.68743        -1.13033
H         18.77276         6.84081        -1.53370
O         17.32868         9.74891        -1.71271
H         18.01016         9.06593        -1.94096
O         10.69432        28.91243         1.99146
H         11.21451        29.60848         2.46908
O         18.58840        23.86133        -2.34530
H         17.72288        24.26753        -2.60831
O          4.06297        31.70105        -1.34060
H          4.55316        31.35910        -2.11667
O         17.37781        31.41325         2.12290
H         17.90010        30.62083         2.40831
O         13.17977        18.93017         1.15733
H         13.87125        19.37858         1.68788
O          7.20544        39.01339        -1.24452
H          7.15504        38.22212        -1.81951
O          6.22906        16.21774        -3.11712
H          5.98307        17.11170        -3.44196
O          9.73775        21.30307         1.22686
H          9.83209        20.37743         1.53784
O         16.05220        10.51475         1.66133
H         16.00387         9.57801         1.95004
O         12.39819        31.06290         2.42559
H         12.15078        31.93395         2.82322
O         12.41133        34.24200         2.53917
H         11.55840        34.55669         2.90716
O          5.51460        33.96265        -1.46784
H          6.14349        33.67892        -2.16355
O         18.81666        12.00937        -1.61913
H         18.20234        11.33516        -2.01325
O          4.86953        10.44944         1.55230
H          4.09145        10.02399         1.97342
O         17.08936        14.28858         1.67912
H         17.09021        15.24516         1.89779
H          1.16835         2.59402         1.57004
H         -0.98406         3.82093         1.30375
H         -1.00934         6.20600         0.68749
H         -0.98083         7.96400        -0.11403
H         -0.97465        10.30575        -0.76189
H         -0.99454        12.21979        -0.68544
H         -0.99920        14.63330        -0.87458
H         -1.00491        16.48340        -0.80838
H         -1.02143        18.90851        -0.74335
H         -0.98017        20.85986        -1.29704
H         -0.98713        23.24986        -0.72807
H         -0.78915        24.89871         0.92630
H         -0.82539        27.35144         1.09392
H         -0.88079        29.27405         1.06771
H         -0.76126        31.62840         1.68490
H         -0.67215        33.42024         2.39112
H         -0.75234        35.83465         2.14556
H          0.34745        38.00387         1.83025
H          3.62805         2.58182         1.51409
H          2.34663        39.36496         1.26141
H          6.09311         2.56337         1.45720
H          4.78530        39.48427         0.70885
H          8.54891         2.54976         1.41687
H          7.29425        39.48755         0.75687
H         10.97808         2.54005         1.47510
H          9.79197        39.57032         0.30432
H         13.41910         2.53895         1.67361
H         12.25951        39.55964         0.33039
H         15.83647         2.54133         1.99046
H         14.71448        39.53736         0.17768
H         18.31119         2.46612         2.10599
H         17.13873        39.52743        -0.04874
H         20.43895         3.70335         2.20474
H         21.38806         5.97644         2.61480
H         21.30888         8.41442         2.35501
H         21.53836        10.24452         1.81770
H         21.59622        12.66097         1.48226
H         21.90622        14.38230         0.24449
H         21.92480        16.78491        -0.20997
H         21.91582        18.62115        -0.71124
H         21.90819        21.05088        -0.85045
H         21.87935        22.89616        -0.25714
H         21.90661        25.34594        -0.27049
H         21.90118        27.26906        -0.13863
H         21.83176        29.69151        -0.33255
H         21.72387        31.51552        -0.79511
H         21.70407        33.93906        -0.92223
H         21.73704        35.84697        -0.77574
H         21.69379        38.30823        -0.79023
H         19.55837        39.54594        -0.42218
