         349
 CSIRO Nanostructure Databank - Neutral Graphene Oxide Data Set
C          1.37296         3.30454        -0.90951
C          0.12133         4.12182        -0.78670
C          1.36559         6.25587        -0.69361
C          0.11599         5.45858        -0.70851
C          1.32803         7.75302        -0.82500
C          0.03575         8.47180        -1.00532
C          1.15090        10.66587        -0.79894
C         -0.04840         9.81183        -0.94103
C          1.01601        12.15175        -0.92365
C         -0.10895        12.84501        -0.52811
C          1.07410        15.01169        -0.33662
C         -0.08287        14.24771        -0.27368
C          1.16938        16.38813         0.11432
C          0.00703        17.10029         0.47193
C          1.31685        19.09636         0.91872
C          0.07623        18.43074         0.84245
C          1.32695        20.51700         1.38016
C          0.14386        21.33639         1.07137
C          1.36758        23.48832         1.21492
C          0.21445        22.70013         0.96455
C          1.22818        24.91326         0.99373
C          0.18413        25.53839         0.23619
C          1.26144        27.74757         0.34815
C          0.16738        26.91005         0.00093
C          1.31564        29.18395         0.14774
C          3.82487         3.42582        -0.47754
C          2.64348         4.10834        -0.73888
C          3.87708         6.22909        -0.91332
C          2.64818         5.52288        -0.86356
C          3.89305         7.68755        -1.28954
C          2.57782         8.47389        -1.29259
C          3.50040        10.88550        -1.71730
C          2.49070         9.98812        -1.12687
C          3.46421        12.25594        -1.58048
C          2.19452        12.93611        -1.29442
C          3.59851        15.04588        -0.71229
C          2.27009        14.43155        -0.95636
C          3.64953        16.31485        -0.16277
C          2.43927        17.03970         0.18266
C          3.81972        19.05406         0.85449
C          2.50049        18.39341         0.63244
C          3.90092        20.47456         1.35629
C          2.61571        21.24099         1.66604
C          3.95257        23.40513         1.44549
C          2.61784        22.79346         1.86818
C          4.09287        24.78806         1.61960
C          2.19658        25.83330         1.46500
C          3.67735        27.80367         1.18012
C          2.34866        27.13561         1.00289
C          3.67333        29.28598         0.94730
C          2.40263        29.91370         0.51623
C          6.22890         3.46250         0.09611
C          5.04870         4.12926        -0.32687
C          6.38346         6.19027        -0.59088
C          5.06822         5.52504        -0.63659
C          6.42809         7.68616        -0.72774
C          5.19031         8.40426        -1.12086
C          6.50905        10.49084        -1.04025
C          5.42927         9.68257        -1.55117
C          6.53919        11.85415        -1.25797
C          4.65377        13.06124        -1.68861
C          6.12551        14.90564        -0.86843
C          4.80075        14.30306        -1.07732
C          6.16663        16.25512        -0.49983
C          4.99262        16.90772         0.19980
C          6.15463        19.14533        -0.01348
C          5.01479        18.42548         0.21868
C          6.22737        20.57548         0.23839
C          5.21840        21.23936         1.16707
C          6.17950        23.46246         0.47225
C          5.05881        22.72133         0.90280
C          6.18429        24.87969         0.47913
C          5.07916        25.57510         1.01738
C          6.18421        27.78373         0.55374
C          4.87356        27.02707         0.60053
C          6.16281        29.25650         0.55247
C          4.93933        29.94857         0.64540
C          8.60575         3.49191         0.81554
C          7.44310         4.15406         0.35886
C          8.67051         6.30673         0.39632
C          7.51306         5.55679         0.09256
C          8.67851         7.76759         0.30414
C          7.55099         8.42298        -0.13489
C          8.57848        10.68408         0.42099
C          7.30770         9.88981         0.10927
C          8.61188        12.14241         0.07085
C          7.46168        12.75971        -0.65011
C          8.69138        14.87183        -0.85529
C          7.36954        14.14226        -0.79453
C          8.60345        16.34201        -0.59325
C          7.40830        16.99927        -0.52269
C          8.60146        19.24952        -0.61011
C          7.30303        18.49862        -0.76237
C          8.60266        20.61826        -0.42326
C          7.35883        21.29345        -0.09001
C          8.64282        23.50482        -0.05190
C          7.32091        22.79112        -0.24366
C          8.60169        24.92771         0.05049
C          7.39492        25.63637         0.18853
C          8.65393        27.86795         0.34185
C          7.35108        27.08749         0.30125
C          8.54396        29.28755        -0.23353
C          7.34429        29.98439         0.33579
C         11.02953         3.52137         1.28914
C          9.79177         4.21131         1.06960
C         10.94540         6.40953         1.39411
C          9.78604         5.63474         0.95038
C         11.00055         7.86054         1.14696
C          9.87006         8.52140         0.72077
C         11.04265        10.70680         0.79013
C          9.87098         9.97849         0.63337
C         11.08073        12.15079         0.54614
C          9.89698        12.85824         0.09915
C         11.05987        15.00395         0.04066
C          9.88695        14.22197        -0.17396
C         11.11669        16.37210        -0.29681
C          9.88904        17.04536        -0.76297
C         11.11506        19.26835        -0.59876
C          9.86364        18.54673        -0.82932
C         11.07268        20.66778        -0.50392
C          9.84878        21.37042        -0.40759
C         11.12471        23.50849        -0.35214
C          9.85157        22.79936        -0.21468
C         11.16505        24.97506        -0.15526
C          9.87991        25.67630         0.10998
C         11.16916        27.85018        -0.00160
C          9.83128        27.12546        -0.31695
C         11.07022        29.35317        -0.14090
C          9.86364        30.01272        -0.11386
C         13.48441         3.52385         1.22069
C         12.24236         4.19367         1.37952
C         13.52825         6.39563         1.52218
C         12.25520         5.65221         1.61895
C         13.52575         7.85069         1.53356
C         12.20978         8.61295         1.67328
C         13.47463        10.72336         1.21063
C         12.29498        10.03932         1.14895
C         13.52151        12.23201         1.23640
C         12.25932        12.85645         0.69668
C         13.56992        15.04422         0.59558
C         12.24792        14.32260         0.59293
C         13.56504        16.50013         0.25296
C         12.30636        17.13892        -0.17894
C         13.59442        19.20800        -0.61449
C         12.32694        18.52506        -0.45728
C         13.52232        20.63729        -1.01781
C         12.38647        21.38470        -0.34763
C         13.48600        23.59708        -1.08878
C         12.28774        22.85012        -0.64652
C         13.51144        25.06419        -0.86698
C         12.37883        25.73989        -0.56770
C         13.65777        27.95518        -0.50182
C         12.33093        27.25403        -0.80312
C         13.57934        29.34936         0.00653
C         12.32809        30.00868         0.02625
C         15.92172         3.54322         0.96393
C         14.69143         4.22503         1.20359
C         15.99912         6.34144         1.50384
C         14.69934         5.66506         1.39060
C         16.00270         7.85621         1.54456
C         14.70644         8.54808         1.47477
C         15.86471        10.56170         0.50597
C         14.79132        10.05903         1.51746
C         15.95369        12.08286         0.47056
C         14.79169        12.85482         0.64641
C         16.00530        14.90020        -0.02492
C         14.82856        14.26539         0.43519
C         16.07049        16.34245        -0.29867
C         14.86332        17.17646        -0.06997
C         16.09752        19.26552        -0.72804
C         14.78754        18.54270        -0.62997
C         16.07517        20.66247        -1.32212
C         14.76182        21.35754        -1.43475
C         16.02629        23.60831        -1.56525
C         14.71781        22.86881        -1.53567
C         16.01383        25.00124        -1.05862
C         14.74243        25.81010        -1.32956
C         16.12851        27.73044        -0.55676
C         14.79479        27.23221        -0.79650
C         16.02064        29.72790         0.49388
C         14.64912        30.08428         0.59887
C         18.35411         3.49267         0.55901
C         17.14551         4.20533         0.86599
C         18.41888         6.31253         0.94727
C         17.22574         5.63004         1.07838
C         18.53466         7.78805         1.31489
C         17.23910         8.56033         1.12066
C         18.43851        10.57587         0.39065
C         17.20545         9.86627         0.71575
C         18.41166        11.96223         0.05882
C         17.17488        12.71534         0.10880
C         18.39893        14.73733        -0.63794
C         17.19570        14.11707        -0.18880
C         18.36201        16.10652        -1.27711
C         17.18676        16.93737        -0.82653
C         18.49662        19.06518        -1.59313
C         17.19920        18.36934        -1.25708
C         18.55522        20.60596        -1.81548
C         17.25235        21.32412        -1.47892
C         18.50331        23.46889        -0.95284
C         17.30206        22.81833        -1.54317
C         18.43622        24.81885        -0.50980
C         17.15834        25.53920        -0.52040
C         18.27238        27.50692         0.69346
C         17.16349        26.93792        -0.11800
C         18.24477        28.89784         1.27275
C         17.05316        29.79228         1.39779
C         19.54035         4.15889         0.42959
C         20.80222         6.27371         0.35788
C         19.61238         5.58305         0.59388
C         20.82014         7.68688         0.31239
C         19.71467         8.44801         0.64640
C         20.86962        10.57744         0.12023
C         19.67389         9.87512         0.40461
C         20.84743        11.91791        -0.19730
C         19.62862        12.63355        -0.25528
C         20.82176        14.72026        -0.95460
C         19.61603        14.03091        -0.63567
C         20.84653        16.10620        -1.12130
C         19.67242        16.85797        -1.16453
C         20.79173        18.98116        -0.67929
C         19.72012        18.30661        -1.20531
C         20.90431        20.44834        -0.69418
C         19.79191        21.29682        -1.22552
C         20.87596        23.42583        -0.46736
C         19.70839        22.74495        -0.84905
C         20.83253        24.77637        -0.13034
C         19.62291        25.48388        -0.11547
C         20.57722        27.89242        -0.13388
C         19.66313        26.87334         0.50826
C         20.53590        29.18806         0.35570
C         19.52622        29.62169         1.23593
O          3.13225        25.42281         2.40551
O         20.99217        21.02524        -2.03786
O         14.32823        17.20734         1.30914
O          5.75307        12.42282        -2.27241
O          1.98919        13.97284        -2.32023
O         16.17679         7.06401         2.78167
O         13.81936        20.78894        -2.42668
O         12.82377        14.90912         1.86196
O          3.13517         7.98057        -2.53206
O          4.53157        10.31258        -2.42965
O         16.35404        29.09001        -0.71506
O         10.71533        25.30711         1.23799
O          8.27758        11.69185         1.45797
O          6.82394         6.81362        -1.86271
O         16.81544        23.41551        -2.79359
O          4.08041        19.35776         2.29265
O          9.94286        17.71024        -2.09189
O          3.77915        28.64963         2.33591
O         11.41890         6.05609         2.75635
O         17.64644        18.48737        -2.64004
O         18.02925        27.67067         2.14807
O         13.77650        23.33204        -2.55160
O          1.86247        20.62976         2.76081
O          1.45477         7.14968         0.50208
O          2.11578        10.32163         0.25120
O          1.33463         2.21047         0.01800
H          1.26697         2.58034         0.92199
O         15.24052        10.41233         2.84181
H         14.66528        11.14223         3.17789
O          9.01109        14.78033        -2.30167
H          9.41366        15.63119        -2.58673
O         16.49632        19.49828         0.67800
H         15.80831        19.12177         1.27068
O         14.61069        25.93878        -2.78017
H         14.45846        25.02361        -3.13066
O         13.57882        12.53663         2.67699
H         13.36337        13.50325         2.77045
O          6.95996        18.60440        -2.18688
H          7.75417        18.31407        -2.68982
O          5.88243        21.20999         2.46812
H          5.58468        20.38552         2.91960
O          2.47453        23.03081         3.28001
H          1.94343        22.28191         3.64131
O          9.62078        27.01432        -1.73210
H          9.42887        27.90681        -2.10389
O         18.15384        15.84723        -2.71443
H         18.02626        16.73629        -3.13331
O         18.81343         7.82141         2.75304
H         17.98103         7.52558         3.19922
O         12.75740        21.32016         1.07651
H         12.03756        21.73832         1.59632
O         20.27182        26.65826         1.81291
H         19.63003        27.03312         2.47210
O         11.54803        27.65453         1.37709
H         10.79351        27.96433         1.93267
O         15.37966        10.15466        -0.80813
H         16.01731        10.47547        -1.48022
O          4.44973        26.90396        -0.80894
H          5.17793        26.46956        -1.30429
O          8.94283        28.04279         1.75897
H          8.78965        27.18448         2.20893
O          5.21347        16.54954         1.61727
H          4.66350        17.14953         2.16866
O          8.23134        29.20602        -1.67689
H          8.20790        30.12329        -2.02280
O          7.00924        22.97723        -1.68035
H          7.73766        22.56872        -2.19592
O         18.66101        20.79211        -3.24502
H         19.61804        20.76388        -3.47145
O          6.44060         9.93491         1.27755
H          6.74036        10.70668         1.81742
O         12.10992        27.44274        -2.21857
H         12.87411        27.02971        -2.69036
O         11.97539         8.75835         3.10672
H         11.82966         7.84711         3.45888
H          1.39245         2.83968        -1.93605
H         -0.82875         3.56724        -0.75700
H         -0.83780         5.99092        -0.58290
H         -0.88319         7.88324        -1.13866
H         -1.02077        10.30742        -1.07667
H         -1.03012        12.29932        -0.27689
H         -1.00586        14.69088         0.12498
H         -0.97357        16.60838         0.43840
H         -0.85029        18.95191         1.11360
H         -0.80973        20.84465         0.84057
H         -0.71023        23.22065         0.67686
H         -0.64371        24.93928        -0.16773
H         -0.69113        27.34825        -0.52853
H          0.43111        29.69019        -0.26673
H          3.79694         2.33709        -0.32676
H          2.40870        31.00202         0.34789
H          6.18449         2.37874         0.27926
H          4.93536        31.03846         0.48643
H          8.59567         2.39953         0.94101
H          7.29166        31.08425         0.29094
H         11.03227         2.42440         1.20480
H          9.84993        31.11543        -0.10496
H         13.48731         2.43423         1.07124
H         12.32223        31.08542         0.26067
H         15.89004         2.45489         0.80560
H         14.37228        30.91657         1.26483
H         18.30563         2.40249         0.42478
H         16.93537        30.32655         2.35254
H         20.46279         3.61229         0.18471
H         21.70817         5.71491         0.08279
H         21.72667         8.16722        -0.08182
H         21.83738        10.06256         0.17229
H         21.79991        12.42198        -0.40140
H         21.77807        14.18369        -0.97887
H         21.82131        16.60611        -1.21751
H         21.63162        18.42097        -0.24390
H         21.62314        20.88945         0.02838
H         21.83872        22.89807        -0.45483
H         21.75501        25.28829         0.17561
H         21.39778        27.57329        -0.79349
H         21.33501        29.89333         0.07864
H         19.55608        30.65291         1.61860
