         261
 CSIRO Nanostructure Databank - Neutral Graphene Oxide Data Set
C        -11.18227         0.64228        -0.83766
C        -10.03269         1.49657        -0.52456
C         -8.93079         0.98387         0.33892
C         -7.55213         1.57980        -0.00084
C         -6.41128         0.79280         0.65436
C         -5.23512         1.52834         1.26174
C         -3.96061         0.76681         1.66235
C         -2.62254         1.48405         1.57693
C         -1.35603         0.74766         1.98551
C         -0.04575         1.49660         2.03903
C          1.13961         0.85361         1.33495
C          2.37931         1.61903         0.93961
C          3.53314         0.97095         0.07900
C          4.90602         1.68301         0.09213
C          6.20043         1.00026        -0.31931
C          7.53770         1.82144        -0.37835
C          8.72906         1.01719        -0.97307
C         10.10367         1.59347        -0.71968
C         11.23511         0.64638        -0.56682
C         -9.91443         2.78259        -0.94795
C         -8.86743         3.75924        -0.43452
C         -7.67878         3.07621         0.31694
C         -6.40190         3.80336         0.62982
C         -5.20860         3.08485         1.38773
C         -3.83773         3.77508         1.19251
C         -2.57321         2.96139         1.31705
C         -1.31417         3.74741         1.63017
C         -0.05249         3.01711         1.95230
C          1.29537         3.72245         1.92393
C          2.55165         2.95967         1.59929
C          3.87793         3.68052         1.50102
C          5.04191         2.89897         0.94906
C          6.42941         3.28486         1.37643
C          8.17481         2.42282         0.92664
C          9.12994         3.54179         0.49629
C         10.20553         2.97922        -0.17649
C         -8.40578         4.71784        -1.54961
C         -7.20998         5.57219        -1.15108
C         -6.11781         4.93738        -0.33994
C         -4.75434         5.55024        -0.41143
C         -3.66566         5.10872         0.51944
C         -2.28073         5.58253         0.14301
C         -1.19670         5.16165         1.09819
C          0.10872         5.90817         1.17984
C          1.34004         5.23906         1.79311
C          2.67416         5.96140         1.68249
C          3.97634         5.17840         1.69348
C          5.24018         5.77631         1.10164
C          6.62706         5.40796         1.64172
C          7.80304         5.75175         0.74345
C          8.97208         4.95526         0.52672
C         -7.01457         6.73516        -1.82224
C         -5.72037         7.44605        -1.88856
C         -4.55357         6.82807        -1.19015
C         -3.38353         7.73461        -0.76259
C         -2.12896         6.86178        -0.60854
C         -0.82013         7.60405        -0.56839
C          0.31483         7.09610         0.25842
C          1.46972         8.02076         0.53165
C          2.71218         7.37313         1.10450
C          4.03941         8.00275         0.75326
C          5.21051         7.11839         0.42650
C          6.48482         7.73247        -0.19370
C          7.76496         7.02717         0.19511
C         -5.60472         8.85689        -2.31658
C         -4.39704         9.46792        -2.34916
C         -3.20284         8.89709        -1.73439
C         -1.99024         9.50214        -1.77290
C         -0.90287         9.11631        -0.78909
C          0.46288         9.69569        -1.19317
C          1.61784         9.24130        -0.31132
C          2.78329         9.93772        -0.32119
C          4.05417         9.41045         0.22511
C          5.35519         9.95651        -0.25870
C          6.49195         9.24276        -0.22761
C        -11.22912        -0.71449        -0.75353
C        -10.07701        -1.57048        -0.46479
C         -8.75624        -1.01846        -0.89044
C         -7.49664        -1.50648        -0.18679
C         -6.26539        -0.68617         0.25705
C         -5.11358        -1.44031         0.88006
C         -3.97552        -0.74007         1.60248
C         -2.66184        -1.52222         1.65343
C         -1.37025        -0.75904         1.76636
C         -0.07807        -1.43589         1.36897
C          1.18422        -0.63866         1.21467
C          2.39829        -1.30385         0.60220
C          3.66103        -0.56505         0.27600
C          5.02857        -1.22788         0.50849
C          6.27402        -0.49249         0.00915
C          7.46977        -1.23447        -0.55967
C          8.62099        -0.47357        -1.17005
C          9.91863        -1.18432        -1.62697
C         11.13689        -0.64866        -0.90643
C        -10.17130        -2.84137         0.01126
C         -8.97952        -3.59436         0.56211
C         -7.64453        -2.92583         0.25053
C         -6.48369        -3.65182         0.85195
C         -5.20808        -2.93352         1.10691
C         -3.92559        -3.72640         1.03112
C         -2.61939        -2.98019         1.19597
C         -1.36531        -3.56454         0.60951
C         -0.13501        -2.71243         0.56138
C          1.14953        -3.40771         0.25164
C          2.39413        -2.79127         0.79778
C          3.68793        -3.49442         0.70489
C          4.96224        -2.70975         0.88387
C          5.99401        -3.55714         1.64435
C          7.92558        -2.59197        -0.08186
C          8.79838        -3.39648        -1.00862
C          9.81847        -2.69653        -1.60211
C         -8.92457        -5.10252         0.31663
C         -7.76542        -5.80321         0.30888
C         -6.48234        -5.04255         0.27191
C         -5.20172        -5.69936        -0.09154
C         -3.91357        -5.06920         0.37005
C         -2.67594        -5.57581        -0.33395
C         -1.39802        -4.79880        -0.27527
C         -0.09282        -5.51513        -0.58158
C          1.19766        -4.85347        -0.18823
C          2.44110        -5.68587         0.05868
C          3.76070        -4.94850         0.29059
C          5.02385        -5.61266        -0.18793
C          6.22746        -4.84564        -0.69365
C          7.51382        -5.57982        -0.87561
C          8.68916        -4.82874        -1.10900
C         -7.74747        -7.33798         0.32815
C         -6.39809        -8.00734         0.01713
C         -5.16654        -7.19710        -0.21775
C         -3.81870        -7.79859         0.06856
C         -2.65521        -7.07369        -0.54584
C         -1.36698        -7.81510        -0.71217
C         -0.11203        -7.00834        -0.89536
C          1.18161        -7.73766        -1.03479
C          2.43895        -7.07698        -0.50764
C          3.69387        -7.65505        -1.19929
C          4.99103        -7.08697        -0.54663
C          6.27042        -7.78485        -0.92549
C          7.48125        -6.97544        -1.04404
C         -6.18416        -9.43228         0.41976
C         -4.96733       -10.01044         0.50422
C         -3.69604        -9.24366         0.39215
C         -2.35656        -9.88488         0.23880
C         -1.25444        -9.21214        -0.17858
C          0.15641        -9.77230         0.03450
C          1.14345        -9.28019        -1.05243
C          2.54016        -9.88137        -1.00466
C          3.69332        -9.18055        -1.15995
C          4.97036        -9.81085        -1.49321
C          6.14902        -9.13995        -1.51116
O         -0.66181         1.01802         3.24317
O         -7.24457        -2.63568        -1.11538
O         -2.03920         5.57810        -1.29107
O         -5.09371         4.41824        -1.27854
O          2.34334        -6.86696         0.91954
O         -6.34980         1.01172         2.07478
O          5.93851        -0.56730         1.42645
O         -7.51850         3.74125         1.58605
O          1.86023         8.23993         1.90313
O         -8.68218        -0.41028        -1.95556
O          4.27223         9.11767         1.66229
O          4.21269         4.29656         2.78719
O          5.35794         1.60803        -1.30803
O         -2.42938         2.01570         0.20859
O          0.74716        -4.87027        -1.57542
O          7.52401        -0.96879        -1.99674
O          0.48207        -2.55852        -0.73790
O         -5.93092        -4.98914        -1.11055
O          2.90428        -3.40978         1.98030
O         -3.62695        -8.17892         1.45907
O         -2.29302        -7.61002        -1.83905
O          1.18884         1.57614         0.06772
O         -0.95982         6.15184         2.13847
O         -4.66845         6.62786        -2.59801
O         -1.98662        -1.39721         2.92676
O          3.65167        -7.19521        -2.49583
O          8.43134         1.71762         1.90264
O          6.10850        -3.69622        -1.11419
O          4.95690         5.88290        -0.33283
O          7.91617        -2.85724         1.11620
O         -3.84709         5.03079         1.94211
O          5.30226        -2.80871         2.37670
O         -9.08980         0.26471         1.31431
O         -2.27835        -4.71586        -1.43495
O          0.26787         6.85055        -1.19655
O          0.89314        -1.36616         2.44785
O          9.44137         1.66514        -2.05062
O         -4.20958        -0.03778         2.84373
O          0.54394        -7.20251        -2.20616
O          4.69997        -5.55446         1.23648
O         -3.90168        -4.95760         1.81788
O         -3.63370         8.29612         0.49438
O         -5.09540        -1.02740        -0.53231
O          2.82648        -1.14732        -0.78331
O          2.08034         3.08296         2.97018
O          5.86596         2.49538         2.19149
O         -6.08360        -3.36799         2.20552
O         -5.89680        -7.74845        -1.34241
O          1.92816         5.91559         2.92639
O         -0.87934         3.60700         2.99969
O         -1.70899        -3.79436         2.00026
O          6.79411         5.34373         2.85645
O          5.63885        -7.82261         0.46852
O         -9.10039        -3.45306         2.00852
H         -9.94843        -3.85160         2.29482
O          6.46694         7.39828        -1.62139
H          6.11528         6.47995        -1.70171
O         -5.42273         3.30348         2.78728
H         -6.22098         2.79761         3.05903
O          3.10339         1.20816        -1.26638
H          2.42125         0.53953        -1.50324
O          0.58927        -9.72438        -2.30389
H          0.50095        -8.93220        -2.88823
O         -7.26609         1.66240        -1.41202
H         -7.57962         0.85001        -1.89281
O          7.32590         2.96750        -1.20030
H          6.94687         2.67289        -2.05754
O         10.08149        -0.83585        -3.02219
H          9.19958        -0.91288        -3.44740
O         -8.05677         3.99419        -2.72836
H         -7.37367         3.32270        -2.49887
O          0.74833         9.29672        -2.54108
H          0.72929         8.31291        -2.57012
O         -9.59831         4.58171         0.50399
H         -9.11986         4.56039         1.36680
O         -8.18696        -7.77516         1.62231
H         -7.59699        -7.39735         2.30692
O          0.62891        -9.29255         1.29342
H          0.03608        -9.60919         2.00507
O         -1.28533         9.67076         0.48846
H         -2.19662         9.31312         0.70941
H         11.98736        -1.32685        -0.74638
H         12.14687         1.02452        -0.08128
H         11.06226         3.59615        -0.49789
H          9.79651         5.50266         0.03094
H          8.66447         7.38835        -0.33422
H          7.44750         9.71887        -0.49286
H          5.39575        11.03925        -0.45508
H          2.85343        10.84487        -0.94168
H          0.40819        10.81174        -1.18278
H         -1.82952        10.39072        -2.40316
H         -4.30923        10.48189        -2.76825
H         -6.50022         9.36098        -2.70789
H         -7.83106         7.11805        -2.45589
H         -9.26410         5.38425        -1.81402
H        -10.70664         3.22404        -1.57336
H        -12.10420         1.17195        -1.12544
H        -12.19730        -1.21558        -0.90904
H        -11.16700        -3.26354         0.22888
H         -9.88469        -5.64403         0.32623
H         -8.50422        -7.71582        -0.40527
H         -7.08431       -10.04132         0.59238
H         -4.89326       -11.08307         0.74051
H         -2.24921       -10.91775         0.60951
H          0.11410       -10.89676         0.03819
H          2.58063       -10.98277        -1.04351
H          4.94585       -10.85833        -1.83128
H          7.06738        -9.63386        -1.86071
H          8.38790        -7.47075        -1.43003
H          9.59202        -5.37985        -1.42180
H         10.54160        -3.22946        -2.24107
