         234
 CSIRO Nanostructure Databank - Neutral Graphene Oxide Data Set
C          3.10721         3.35152         3.94958
C          2.67987         4.47803         3.22822
C          3.91838         2.37483         3.37376
C          2.96992         4.58873         1.85569
C          1.59992         6.58989         1.40219
C          1.42545         7.92212         0.93485
C          2.67051         5.78966         1.04893
C          2.41442         8.56540         0.21795
C          1.10163        10.60316        -0.32307
C          1.02788        11.79990        -1.02229
C          2.34956         9.96015        -0.19332
C          2.20956        12.44730        -1.41820
C          1.04131        15.57010        -1.79486
C          1.10160        16.88076        -1.35758
C          2.18616        14.76083        -1.71343
C          2.32060        17.39217        -0.87141
C          2.40446        18.82977        -0.67677
C          4.27749         2.46634         2.00544
C          3.65233         3.50279         1.27435
C          5.33466         1.66361         1.43071
C          4.97248         4.16923        -0.23980
C          3.59764         6.26764        -0.01118
C          3.53681         7.77605        -0.31379
C          4.90681         5.60065        -0.31182
C          4.78070         8.50408        -0.64596
C          3.53632        10.62721        -0.61561
C          3.49230        11.98299        -1.07936
C          4.76877         9.89030        -0.70969
C          4.72325        12.79910        -1.19293
C          3.40439        15.17468        -1.14104
C          3.45926        16.54664        -0.76139
C          4.66820        14.32657        -1.24701
C          4.71050        17.15218        -0.26926
C          3.56146        19.47113        -0.40174
C          4.77313        18.70631        -0.08123
C          6.25216         2.13320         0.48508
C          6.15109         3.44601        -0.12217
C          7.48193         1.40478         0.25169
C          7.34690         4.09563        -0.66390
C          6.04020         6.32581        -0.66019
C          6.02855         7.77462        -0.76407
C          7.27984         5.57208        -0.98468
C          7.23042         8.48512        -0.83304
C          5.97443        10.61126        -1.27039
C          5.92798        12.12582        -1.10572
C          7.26360         9.92066        -0.85790
C          7.25174        12.80125        -1.03098
C          5.97735        15.06600        -0.98133
C          5.98492        16.45603        -0.44339
C          7.27601        14.31282        -0.87358
C          7.15862        17.10546        -0.11644
C          6.08257        19.32188        -0.18916
C          7.23468        18.55774        -0.06286
C          8.64921         2.02364        -0.18201
C          8.65348         3.45090        -0.45170
C          9.89088         1.30273        -0.34807
C          9.82745         4.18401        -0.49536
C          8.58718         6.33571        -1.14272
C          8.47697         7.72346        -0.56157
C          9.85024         5.61154        -0.68381
C          9.73864         8.45651        -0.33487
C          8.43448        10.61933        -0.61037
C          8.43111        12.05682        -0.52825
C          9.78427         9.92393        -0.67921
C          9.55549        12.74423        -0.07949
C          8.43692        14.91835        -0.20441
C          8.36554        16.32597         0.32526
C          9.56983        14.17810         0.04974
C          9.68276        17.05368         0.19959
C          8.52323        19.19650        -0.12024
C          9.72389        18.49079        -0.02785
C         11.08548         1.96944        -0.53288
C         11.09945         3.44559        -0.35009
C         12.34625         1.30039        -0.70024
C         12.37213         4.18898        -0.55484
C         11.04668         6.33810        -0.62417
C         11.04810         7.77878        -0.47782
C         12.33958         5.67345        -0.65918
C         12.21328         8.50726        -0.30742
C         10.85211        10.53771         0.19539
C         10.67294        11.97972         0.53274
C         12.20517         9.88033         0.19141
C         11.86488        12.65608         1.12923
C         10.90838        14.86661         0.23090
C         10.82575        16.35663         0.45635
C         11.93580        14.15765         1.12384
C         12.10380        17.08359         0.56091
C         10.98851        19.12891        -0.22720
C         12.19525        18.44131        -0.02547
C         13.53338         1.97490        -0.95006
C         13.46068         3.44810        -1.31131
C         14.78309         1.28960        -1.04127
C         14.78549         4.20709        -1.21260
C         13.50522         6.38810        -0.74897
C         13.48661         7.90603        -0.84338
C         14.79363         5.68652        -0.96851
C         14.76638         8.59515        -0.30470
C         13.34455        10.52506         0.65404
C         13.15502        11.89492         1.26223
C         14.68307         9.70610         0.77212
C         14.31943        12.75000         1.60784
C         13.26521        14.85786         1.22106
C         13.34300        16.32023         0.88760
C         14.52684        14.07109         1.36557
C         14.64582        16.84300         0.40182
C         13.47412        19.01978        -0.14115
C         14.67864        18.30714         0.12155
C         16.00758         1.95843        -1.02791
C         15.98704         3.42514        -0.79575
C         17.26782         1.30674        -1.00701
C         17.26191         4.17015        -0.60099
C         16.04948         6.36011        -0.57873
C         16.07167         7.79917        -0.31504
C         17.27126         5.66037        -0.56421
C         17.29684         8.39299         0.23603
C         16.04521        10.46378         0.78236
C         16.21589        11.61891         1.48498
C         17.31087         9.77429         0.45093
C         17.37997        12.53242         1.47034
C         15.88833        14.79468         1.57337
C         15.90224        16.08438         0.73135
C         17.22392        14.00766         1.28866
C         17.16319        16.86118         0.71671
C         15.90528        18.95462         0.15838
C         17.12963        18.27267         0.46301
C         18.48458         1.99526        -0.86346
C         18.53101         3.43161        -0.73636
C         19.73896         1.29489        -0.87677
C         19.72967         4.11826        -0.70074
C         18.49946         6.29167        -0.33881
C         18.56331         7.59017         0.41308
C         19.75298         5.62765        -0.84315
C         19.80949         8.38277         0.08960
C         18.56001        10.44444         0.59756
C         18.63912        11.84681         1.03195
C         19.78747         9.79445         0.24480
C         19.78305        12.66482         0.63218
C         18.39045        14.72187         1.02774
C         18.37591        16.18496         0.87528
C         19.68688        14.06782         0.78355
C         19.59642        16.92973         0.81120
C         18.32160        19.00778         0.53598
C         19.55814        18.35849         0.72998
C         20.92885         1.96467        -0.76841
C         20.97293         3.39794        -0.67687
C         22.17057         4.09831        -0.48840
C         21.03137         6.26585        -0.35473
C         21.02245         7.71003        -0.17482
C         22.18054         5.50110        -0.28236
C         22.20986         8.47522        -0.28878
C         20.99487        10.55404         0.10793
C         20.97273        12.00906         0.23393
C         22.19089         9.85609        -0.15494
C         22.11688        12.80462         0.01344
C         20.87870        14.82731         0.61578
C         20.86204        16.27504         0.78286
C         22.06777        14.17310         0.23044
C         22.03387        17.03802         0.83807
C         20.77251        19.10061         0.78148
C         21.98451        18.44429         0.86950
O         12.00081         3.77382         0.79313
O         12.21058        12.02216         2.39316
O          5.44141        14.93475        -2.34009
O          2.05652        13.51286        -2.30642
O         18.34503        12.08019         2.49070
O         10.24185        10.91005         1.45747
O         15.24185        12.03516         2.37374
O         14.97567         5.08388        -2.36653
O         12.72145        17.13351         1.92159
O          8.95232         7.96705         0.80568
O          7.60749        13.67125        -2.14916
O         11.51078        14.79679        -1.05569
O          4.60618        17.78442         1.04377
O          3.02716         6.76423        -1.25771
O         12.33724        14.70618         2.38302
O         15.28583        15.97882        -0.59507
O          7.13310         4.58495        -2.05886
O         16.44834         3.72145         0.56600
O          3.75239         3.48102        -0.12644
O         15.66059         8.78397        -1.39730
O         15.97126        15.21454         2.94786
H         15.84419        14.42867         3.51990
O         13.41589         8.19076        -2.26980
H         14.33698         8.18342        -2.61982
O         13.03829         3.46826        -2.69978
H         13.53149         4.20499        -3.13686
O          8.77332         6.55787        -2.56894
H          8.40919         5.76313        -3.02528
O         18.65655         7.22521         1.84759
H         18.66416         8.05642         2.36864
O         14.57280         8.98890         2.02110
H         14.41515         9.64266         2.73606
O          5.92231        10.38696        -2.72336
H          5.12492        10.84342        -3.06705
O         19.75124         5.86190        -2.30796
H         20.55508         5.43212        -2.67114
O          8.13942        16.16322         1.77585
H          8.10549        17.05832         2.17577
O         10.23084        10.02322        -2.05167
H          9.54616         9.64106        -2.64044
H          2.85542         3.27703         5.01658
H          2.13094         5.27776         3.74479
H          4.33001         1.56520         3.99278
H          0.87903         6.21138         2.14148
H          0.54412         8.47964         1.28210
H          0.18156        10.09661        -0.00308
H          0.05871        12.24216        -1.28601
H          0.12807        15.15875        -2.24292
H          0.22685        17.54087        -1.43786
H          1.49204        19.41047        -0.87875
H          5.59377         0.73149         1.95887
H          3.61428        20.56951        -0.40131
H          7.52028         0.34368         0.54184
H          6.15229        20.39985        -0.39841
H          9.86657         0.20247        -0.34499
H          8.54907        20.28749        -0.26604
H         12.36890         0.20461        -0.58830
H         11.00703        20.18315        -0.54521
H         14.77691         0.18811        -1.03071
H         13.55618        20.08296        -0.41809
H         17.29308         0.21114        -1.11152
H         15.95046        20.03831        -0.02955
H         19.72862         0.19857        -0.96375
H         18.29664        20.09943         0.40319
H         21.87772         1.40868        -0.75606
H         23.11673         3.54249        -0.42481
H         23.13646         5.97469        -0.01460
H         23.16265         7.97350        -0.50695
H         23.13673        10.40484        -0.25649
H         23.06341        12.35093        -0.30818
H         22.98132        14.76026         0.06794
H         23.01621        16.54738         0.85909
H         20.73040        20.19849         0.74725
H         22.92105        19.01622         0.92391
