         480
 CSIRO Nanostructure Databank - Neutral Graphene Oxide Data Set
C         38.05336        50.00714        -1.75837
C         37.19651        50.63986        -2.66242
C         38.38828        52.71201        -2.32699
C         37.36895        51.99774        -2.94543
C         40.12282        48.53699        -0.26459
C         39.96873        50.02336        -0.09813
C         39.09608        50.70337        -1.13829
C         40.34825        52.83242        -0.77837
C         39.27309        52.08951        -1.41251
C         40.56655        54.23254        -1.05417
C         42.47075        48.56469         0.46535
C         41.26920        47.88125         0.04526
C         42.42988        49.98209         0.50912
C         41.30072        50.70704         0.08152
C         42.49125        52.84911         0.43448
C         41.34470        52.13160        -0.03326
C         42.37210        54.33017         0.64032
C         41.56122        54.95186        -0.46688
C         44.97980        45.76300         0.43043
C         43.77862        46.43798         0.47549
C         44.95192        48.54036         0.81695
C         43.72540        47.85403         0.62822
C         44.93873        49.98144         1.12941
C         43.62279        50.71911         0.96099
C         44.89803        52.86541         0.90654
C         43.66717        52.17733         0.78401
C         44.91031        54.30964         1.02084
C         43.67853        55.01568         0.96901
C         44.72329        56.95595         1.96131
C         43.60590        56.34594         1.39711
C         47.53965        44.34302         0.27172
C         47.47796        45.75528         0.35601
C         46.21687        46.44856         0.49727
C         47.44096        48.57217         0.80653
C         46.20641        47.86359         0.70426
C         47.46423        50.01019         1.27802
C         46.18468        50.76844         1.02463
C         47.34307        52.99560         0.58192
C         46.13997        52.14568         0.94841
C         47.46879        54.27756         1.46302
C         46.10314        54.98085         1.43302
C         47.94141        57.39621         1.84785
C         45.93291        56.24867         1.99534
C         48.04143        58.78881         1.85295
C         49.96184        44.33772         0.01730
C         48.77234        43.66362         0.17362
C         49.96063        45.83846        -0.09939
C         48.68040        46.50435         0.32844
C         49.92348        48.62485         0.67471
C         48.67496        47.90281         0.59332
C         49.91718        50.05958         0.76431
C         48.68642        50.74203         0.80837
C         49.92676        52.92315         0.52324
C         48.62785        52.17016         0.50172
C         49.88498        54.40342         0.67927
C         48.69689        55.11757         1.00234
C         49.92237        57.24184         0.48753
C         48.82514        56.56095         1.11246
C         50.02148        58.65317         0.45624
C         49.04342        59.42036         1.12122
C         52.26995        41.43446         0.45345
C         51.25515        42.16241        -0.02695
C         52.24007        44.28579         0.95193
C         51.30740        43.66821        -0.14756
C         52.37302        45.77887         0.70135
C         51.19594        46.50592         0.45653
C         52.40950        48.59797         0.79826
C         51.17590        47.91684         0.61567
C         52.44000        50.06849         1.13077
C         51.15992        50.78792         0.79645
C         52.41604        52.89154         0.62042
C         51.19176        52.18623         0.74061
C         52.41970        54.39379         0.68844
C         51.09340        55.04305         0.39659
C         52.34796        57.13655        -0.37433
C         51.05353        56.44674        -0.00708
C         52.38737        58.60402        -0.37062
C         51.19743        59.32267        -0.12532
C         52.34940        61.33574        -0.84369
C         51.19549        60.70653        -0.38790
C         54.81638        40.01712         0.11058
C         54.82707        41.36813         0.52773
C         53.56026        42.04901         0.86849
C         54.82870        44.25338         0.88845
C         53.57504        43.55188         1.05667
C         54.86111        45.71850         1.21000
C         53.59115        46.46308         0.86694
C         54.93098        48.59736         1.00712
C         53.60749        47.87695         0.83734
C         54.89749        50.05393         0.54663
C         53.67024        50.77630         0.61442
C         54.84359        52.90723         0.11465
C         53.64224        52.18623         0.44565
C         54.84602        54.30248        -0.01515
C         53.61834        55.05187         0.04093
C         54.83820        57.10879        -0.60707
C         53.62181        56.39701        -0.27652
C         54.81425        58.47438        -0.90272
C         53.59760        59.24874        -0.75277
C         54.75253        61.43494        -1.47108
C         53.56130        60.64398        -0.97992
C         54.93943        62.67856        -0.61990
C         57.24842        39.94637         0.16521
C         55.99407        39.30768        -0.01084
C         57.26657        41.35744         0.42360
C         56.06179        42.04749         0.65998
C         57.35974        44.21919         0.78443
C         56.09775        43.47693         1.17447
C         57.31749        45.66795         0.65713
C         56.10912        46.36507         0.66650
C         57.33560        48.50592         0.26136
C         56.01427        47.80059         0.22433
C         57.31466        49.95007        -0.02297
C         56.05539        50.69242         0.13258
C         57.35668        52.85885         0.05995
C         56.07000        52.13925        -0.31384
C         57.31611        54.34550         0.31816
C         56.07849        55.03089        -0.19608
C         57.35066        57.13091        -0.56646
C         56.09293        56.38582        -0.49430
C         57.34110        58.48147        -0.89991
C         56.06496        59.08128        -1.51333
C         57.35120        61.37326        -1.42029
C         56.06201        60.62785        -1.59385
C         57.36004        62.80578        -1.00209
C         56.11316        63.34203        -0.51231
C         59.72551        37.11479         0.32044
C         58.51895        37.79849         0.22948
C         59.75184        39.92572        -0.15904
C         58.46689        39.19804         0.11830
C         59.71551        41.38086         0.24057
C         58.54333        42.06737         0.46169
C         59.80388        44.24358         0.40793
C         58.54220        43.52786         0.57714
C         59.80729        45.69503         0.49098
C         58.55756        46.39108         0.53244
C         59.76104        48.58762         0.68433
C         58.52053        47.82420         0.44115
C         59.84573        50.02009         0.39289
C         58.61340        50.72861        -0.01406
C         59.80229        52.92570         0.32467
C         58.55331        52.20298         0.15911
C         59.81149        54.30230         0.14917
C         58.59583        55.05198        -0.03835
C         59.86425        57.12686        -0.49687
C         58.59883        56.41608        -0.32810
C         59.84993        58.55583        -0.73907
C         58.58144        59.23811        -0.91952
C         59.84469        61.34202        -1.33694
C         58.59034        60.60612        -1.16007
C         59.82856        62.89443        -1.33299
C         58.54999        63.53503        -0.96059
C         59.81852        65.59076        -0.50564
C         58.62580        64.90759        -0.55538
C         62.27757        35.70631         0.22213
C         62.24282        37.09784         0.60512
C         60.97355        37.81145         0.45514
C         62.15357        39.94794         0.80833
C         60.97026        39.19974         0.37137
C         62.29702        41.36547         0.38532
C         60.99331        42.10027         0.14289
C         62.31244        44.20454         0.14089
C         60.99568        43.55289         0.27006
C         62.30366        45.72214         0.23369
C         61.02701        46.38609         0.50201
C         62.32639        48.56395         0.64275
C         61.07091        47.81604         0.81353
C         62.30104        49.96419         0.60589
C         61.04905        50.68325         0.50965
C         62.28682        52.76587        -0.12929
C         61.09382        52.19270         0.64863
C         62.37269        54.27356         0.03815
C         61.08707        55.04843         0.11830
C         62.35240        57.09896        -0.60508
C         61.06473        56.44357        -0.34500
C         62.33939        58.58691        -0.73569
C         61.04737        59.29215        -0.72478
C         62.29677        61.44271        -0.92511
C         61.09902        60.69781        -0.95766
C         62.31566        62.84734        -1.11047
C         61.10541        63.58692        -1.09868
C         62.31422        65.70543        -0.67150
C         61.08232        64.97420        -0.77479
C         62.42108        66.94903        -0.04792
C         64.70811        35.65944         0.49627
C         63.44181        35.01851         0.15319
C         64.71788        37.09393         0.82963
C         63.43621        37.75901         0.92070
C         64.70301        39.95723         1.20776
C         63.42384        39.20914         1.19885
C         64.74433        41.34281         1.04088
C         63.54217        42.10031         0.70787
C         64.76823        44.23158         0.72915
C         63.55585        43.47882         0.52427
C         64.74837        45.64545         0.76085
C         63.55949        46.41571         0.58152
C         64.80015        48.56192         0.69691
C         63.55311        47.82285         0.64116
C         64.78668        49.98013         0.70241
C         63.56320        50.69970         0.54341
C         64.85635        52.73754        -0.04625
C         63.57386        52.07253         0.25966
C         64.91640        54.20082        -0.36142
C         63.60802        54.95077        -0.46016
C         64.84942        57.07855        -0.34825
C         63.64708        56.41303        -0.36513
C         64.85358        58.55604        -0.17795
C         63.56967        59.31788        -0.30962
C         64.87732        61.51440        -0.67075
C         63.56369        60.80794        -0.49414
C         64.92022        62.91805        -1.16643
C         63.59655        63.56923        -1.33686
C         64.82954        65.86148        -1.17007
C         63.53561        65.10355        -1.23761
C         64.83317        67.18168        -0.50514
C         63.64108        67.65232         0.03571
C         67.00866        33.82412        -1.99882
C         66.00214        34.00181        -1.10222
C         67.17698        35.98029        -0.12001
C         66.04269        35.07508        -0.09483
C         67.17466        37.19020         0.60260
C         65.92497        37.78113         1.01504
C         67.19498        39.95966         1.90747
C         65.86474        39.12623         1.73677
C         67.23188        41.31266         1.19828
C         66.01313        42.04400         1.05849
C         67.22709        44.16839         0.90796
C         66.01556        43.48905         0.90299
C         67.29597        45.63322         0.96400
C         65.99707        46.40293         0.96083
C         67.28358        48.55058         0.56234
C         66.00343        47.84532         0.69331
C         67.34095        49.99937         0.84129
C         66.04124        50.73962         1.06408
C         67.37093        52.83747         0.50746
C         66.12358        52.05793         0.34029
C         67.27322        54.32752         0.65911
C         66.12613        54.98238        -0.07514
C         67.33127        57.13656         0.01662
C         66.10958        56.37476        -0.16972
C         67.33642        58.57226        -0.20386
C         66.13488        59.26858        -0.34668
C         67.42299        61.44302        -0.84874
C         66.11193        60.67522        -0.78598
C         67.38577        62.92731        -0.83090
C         66.12753        63.60978        -1.15863
C         67.41100        65.84866        -0.97326
C         66.13965        65.09607        -1.28005
C         67.34036        67.27229        -0.52904
C         66.07650        67.91130        -0.36241
C         67.22827        69.98509         0.19723
C         66.05763        69.27904         0.00139
C         69.33262        33.20617        -3.70915
C         69.37066        34.22549        -2.68373
C         68.26694        34.53308        -1.90601
C         69.61373        36.26916        -0.58828
C         68.43432        35.36380        -0.65395
C         69.63835        37.27557         0.37052
C         68.42836        37.84854         0.86038
C         69.77648        39.87896         1.53819
C         68.50059        39.03636         1.79261
C         69.72025        41.30306         1.15527
C         68.47818        41.98636         1.10661
C         69.78029        44.17746         0.81312
C         68.51339        43.47864         1.26268
C         69.81327        45.57055         0.63042
C         68.50962        46.24734         0.27684
C         69.82026        48.44420         0.77170
C         68.54269        47.77366         0.37077
C         69.80780        49.95842         0.86458
C         68.52074        50.69022         0.75039
C         69.82293        52.86636         0.65438
C         68.55207        52.15597         0.68540
C         69.81898        54.30318         0.58696
C         68.58494        55.04281         0.48468
C         69.77130        57.22261         0.51338
C         68.54070        56.43895         0.30444
C         69.80246        58.64780         0.15381
C         68.59159        59.32049        -0.19211
C         69.80570        61.46429        -0.12835
C         68.62304        60.71787        -0.39937
C         69.77801        62.89888        -0.15698
C         68.56856        63.59838        -0.54881
C         69.81961        65.79282        -0.14147
C         68.66177        65.07020        -0.69440
C         69.87952        67.28824        -0.36631
C         68.52626        67.96847        -0.23470
C         69.71520        70.09729         0.32592
C         68.48754        69.35278         0.08908
C         69.71891        71.50744         0.40505
C         71.76995        33.19953        -3.87984
C         70.47164        32.70972        -4.27014
C         71.88607        34.23693        -3.01704
C         70.68632        34.90304        -2.46762
C         72.11731        36.27759        -0.73017
C         70.82366        35.92928        -1.36249
C         72.16631        37.02986         0.37789
C         70.95693        37.62031         1.05951
C         72.10985        39.86616         0.48682
C         71.07075        39.13612         1.20684
C         72.08840        41.22835         0.46310
C         70.93548        41.98096         0.86524
C         72.20006        44.12539         0.57962
C         70.97870        43.42994         0.75445
C         72.23612        45.50697         0.49599
C         71.04527        46.26838         0.49407
C         72.22974        48.49384         0.40233
C         71.08377        47.73075         0.49645
C         72.21695        49.92257         0.44860
C         71.07138        50.67601         0.62414
C         72.25083        52.86356         0.45429
C         71.04599        52.14068         0.57783
C         72.25945        54.25417         0.43855
C         71.06944        54.98939         0.52078
C         72.30887        57.24190         0.31830
C         71.10144        56.46645         0.63046
C         72.26533        58.59677         0.24368
C         71.02377        59.33957         0.22124
C         72.17992        61.53281         0.45814
C         71.01917        60.77533         0.16802
C         72.12649        62.91067         0.51210
C         70.93446        63.62034         0.22746
C         72.02649        65.80668         0.86937
C         70.92209        65.08445         0.30844
C         72.01026        67.19046         0.96182
C         70.96058        67.96390         0.44203
C         72.10279        70.13213         0.89687
C         70.93862        69.39190         0.55287
C         72.07354        71.51330         0.97277
C         70.87693        72.20704         0.71532
O         66.79398        46.16582         2.22184
O         62.45196        57.76699        -1.94368
O         63.41082        64.42955        -2.51073
O         66.80187        60.87906        -2.06030
O         58.04667        50.27523        -1.29537
O         46.99243        56.84151         2.70727
O         56.79939        61.08588        -2.78150
O         64.24185        54.43203        -1.66620
O         65.53839        65.74109        -2.44248
O         70.80861        39.63899         2.54466
O         70.67137        36.35833        -2.77590
O         44.09992        50.30671         2.29775
O         64.04502        58.93698         1.01787
O         53.56883        42.58082         2.25457
O         65.58262        34.78699         1.26175
O         67.93456        48.35278        -0.82582
O         67.21666        40.47235         3.21820
O         51.44164        56.62940        -1.43297
O         59.84302        62.13030        -2.57292
O         60.32074        48.23274         2.00379
O         61.95797        54.82650         1.31049
O         62.47577        39.69541         2.21526
O         70.39329        56.95308         1.81819
O         65.67362        51.97410        -1.04626
O         68.36312        65.58899        -2.06909
O         64.21982        61.47597         0.64391
O         61.84729        41.60574        -0.98964
O         69.80115        49.09830         2.07586
O         49.34075        52.49277        -0.76491
O         62.41158        45.03118        -1.06829
O         68.31902        45.89131        -1.12390
H         68.01959        46.71302        -1.58790
O         50.06874        46.10483        -1.57847
H         49.22249        45.81394        -1.98322
O         62.07380        52.51057        -1.53727
H         62.85340        52.86822        -2.02445
O         52.61688        54.69371         2.14046
H         53.38724        54.16514         2.44384
O         51.84911        43.98989        -1.44961
H         51.43059        44.83471        -1.75259
O         59.86581        39.91482        -1.63480
H         60.64900        40.47939        -1.85193
O         39.25282        50.21555         1.18447
H         39.80350        49.80675         1.88621
O         68.54610        43.62828         2.74178
H         68.01301        42.89432         3.12854
O         66.91360        54.50542         2.09539
H         67.68274        54.21416         2.63146
O         56.15929        43.36901         2.65743
H         55.31614        42.91166         2.91248
O         65.95558        51.04794         2.48894
H         65.94051        50.20386         2.98733
O         52.59043        50.13652         2.60110
H         53.43472        49.67228         2.82086
O         51.53656        44.15433         2.20340
H         52.03287        43.49813         2.74838
O         47.03187        53.48215        -0.74612
H         47.84932        53.37375        -1.29223
O         56.03987        52.12388        -1.78160
H         56.76732        51.51755        -2.06599
O         55.24442        48.62207         2.41850
H         55.20300        47.68464         2.74991
O         65.42855        38.79396         3.07208
H         65.88800        39.47824         3.64308
O         47.74355        53.86756         2.81797
H         47.70564        54.66634         3.38710
O         55.53265        47.81306        -1.16043
H         56.24306        47.45453        -1.73314
O         54.99212        45.85344         2.69289
H         55.59213        45.11344         2.98056
O         57.20577        54.46418         1.79585
H         57.36206        55.40499         2.02713
O         56.07336        58.60432        -2.88757
H         56.60270        59.25414        -3.40703
O         41.54558        54.49290         1.85617
H         40.70566        54.00862         1.70247
O         68.60754        38.45296         3.10351
H         68.19620        39.15608         3.69604
O         70.29014        67.46173        -1.77140
H         69.66261        66.91001        -2.30481
O         61.38808        52.41074         2.05292
H         60.61734        52.11938         2.58243
O         47.57521        49.94508         2.75204
H         46.70568        49.65203         3.10114
O         70.87814        37.02158         2.36464
H         70.25793        37.57717         2.90702
O         54.38752        61.91446        -2.79009
H         55.23326        62.03131        -3.28510
O         68.80178        34.33518         0.37309
H         68.73875        34.76304         1.25605
H         37.88826        48.94451        -1.53507
H         36.38656        50.07217        -3.14052
H         38.49587        53.77910        -2.56182
H         36.69652        52.50414        -3.65160
H         39.23982        47.94594        -0.54606
H         39.92323        54.73597        -1.78917
H         41.28054        46.78694        -0.05189
H         41.68762        56.01976        -0.69728
H         44.96112        44.67247         0.30537
H         42.85194        45.85697         0.38707
H         44.66558        57.96066         2.39864
H         42.64210        56.87220         1.37263
H         46.62440        43.74228         0.34097
H         47.32959        59.37473         2.44829
H         48.75183        42.56583         0.21616
H         49.10923        60.51581         1.13813
H         52.16786        40.34009         0.51312
H         50.35572        41.63894        -0.38493
H         52.30762        62.40223        -1.10219
H         50.27500        61.29498        -0.27745
H         53.86266        39.49871        -0.05228
H         54.03438        63.14312        -0.20198
H         55.95375        38.24203        -0.27227
H         56.12707        64.31011         0.00952
H         59.69283        36.02350         0.43337
H         57.58670        37.22123         0.31176
H         59.79756        66.65670        -0.24023
H         57.70049        65.45136        -0.32235
H         61.34228        35.19349        -0.03518
H         61.53554        67.40481         0.41494
H         63.44180        33.94898        -0.09594
H         63.63181        68.60990         0.57357
H         66.88264        33.06247        -2.78108
H         65.10871        33.36530        -1.16003
H         67.16515        71.04990         0.45688
H         65.09954        69.80637         0.09566
H         68.36283        32.78976        -4.01392
H         68.79944        72.07282         0.20189
H         72.66566        32.73321        -4.31332
H         70.41184        31.91216        -5.02340
H         72.87545        34.64828        -2.77367
H         73.04647        35.88926        -1.17245
H         73.13485        37.21236         0.86804
H         72.91517        39.31010        -0.01399
H         72.92626        41.75756        -0.00976
H         73.15131        43.57755         0.56628
H         73.20927        46.01038         0.41814
H         73.20256        48.00865         0.23958
H         73.18332        50.42266         0.29563
H         73.21093        52.33460         0.40051
H         73.22559        54.77344         0.38555
H         73.26508        56.72283         0.16488
H         73.20205        59.14392         0.06805
H         73.12555        61.02648         0.69158
H         73.04193        63.45752         0.77066
H         72.87923        65.26577         1.29812
H         72.83774        67.68483         1.49032
H         73.05327        69.60728         1.06363
H         72.98813        72.07081         1.21736
H         70.85966        73.30469         0.75892
