         349
 CSIRO Nanostructure Databank - Neutral Graphene Oxide Data Set
C          1.28454         3.33329         1.25211
C          0.09284         4.01964         0.99907
C          1.32192         6.09692         0.58124
C          0.09898         5.37224         0.67685
C          1.35837         7.49638         0.24492
C          0.17130         8.24443        -0.01339
C          1.33301        10.43940         0.33201
C          0.14212         9.61109        -0.06509
C          1.35101        11.84705        -0.23809
C          0.20120        12.55941        -0.43474
C          1.36136        14.71986        -0.51694
C          0.21091        13.98353        -0.57912
C          1.25803        16.21341        -0.30059
C          0.28161        16.88037        -1.24451
C          1.52905        18.98916        -1.22503
C          0.39829        18.18095        -1.61551
C          1.64516        20.38268        -1.53963
C          0.50507        21.09123        -2.02317
C          1.69033        23.21674        -1.90631
C          0.52583        22.45213        -2.19693
C          1.61303        24.67518        -1.91061
C          0.49175        25.36614        -2.45761
C          1.42730        27.56784        -1.96457
C          0.43889        26.76501        -2.52976
C          1.44285        29.00019        -2.10163
C          3.77013         3.32637         1.41424
C          2.51603         4.02126         1.20962
C          3.83725         6.08024         0.80561
C          2.52256         5.39742         0.87575
C          3.92600         7.51228         0.41035
C          2.64506         8.21473         0.08100
C          3.88872        10.49173         0.26061
C          2.63382         9.71537         0.04140
C          3.90058        11.83136         0.03180
C          2.65258        12.51252        -0.40862
C          3.90391        14.75918        -0.13435
C          2.66793        14.04191        -0.54431
C          3.92714        16.26877        -0.23822
C          2.57573        16.92397        -0.32117
C          3.80845        19.01356        -0.28170
C          2.59947        18.30519        -0.56348
C          3.96807        20.30199        -0.78235
C          2.88107        21.08971        -1.35335
C          4.01790        23.40596        -1.24084
C          2.89105        22.53654        -1.54549
C          3.87443        24.81226        -0.99476
C          2.65963        25.44813        -1.35703
C          3.73534        27.73048        -0.96305
C          2.43831        26.92082        -1.05061
C          3.89817        29.00786        -1.79461
C          2.58117        29.72572        -1.92628
C          6.23061         3.35622         1.51541
C          4.97181         4.00377         1.53503
C          6.22757         6.22215         1.52691
C          4.91343         5.50739         1.69828
C          6.20313         7.66988         1.37382
C          5.10420         8.31040         0.86283
C          6.25829        10.56929         1.00399
C          5.19486         9.72913         0.33612
C          6.36794        11.98136         0.58834
C          5.20136        12.61616        -0.12859
C          6.26882        14.85298         0.55432
C          5.06337        14.10323         0.17835
C          6.21780        16.25755         0.75080
C          4.82328        16.88046         0.86948
C          6.08053        19.16699         0.94975
C          4.72767        18.46181         0.81845
C          6.21892        20.48430         0.29555
C          5.31758        20.80776        -0.67312
C          6.32521        23.55595        -0.37494
C          5.32873        22.92345        -1.10725
C          6.20397        24.94755        -0.17240
C          5.00766        25.56945        -0.53327
C          6.32679        27.68286        -1.05177
C          4.99641        27.04881        -0.60347
C          6.25263        29.21730        -0.96222
C          5.04693        29.81944        -1.24609
C          8.64782         3.41242         1.19654
C          7.43533         4.07870         1.48217
C          8.70000         6.26344         1.52998
C          7.42524         5.54017         1.54294
C          8.71679         7.65791         1.66669
C          7.41757         8.38774         1.92912
C          8.73797        10.59157         1.49018
C          7.45615         9.88247         1.61495
C          8.72641        12.00912         1.27991
C          7.48489        12.70581         0.92295
C          8.67600        14.89322         1.03900
C          7.49337        14.16554         0.79107
C          8.66346        16.30465         1.04344
C          7.40938        16.96986         0.98490
C          8.68063        19.19398         1.03837
C          7.39103        18.44020         1.13672
C          8.66750        20.57670         0.90506
C          7.41662        21.31453         0.59294
C          8.75710        23.49294         0.15337
C          7.44346        22.78757         0.24412
C          8.72505        25.00823        -0.09436
C          7.40929        25.71742         0.31411
C          8.62276        27.85531        -0.03479
C          7.48291        27.13770        -0.22139
C          8.66791        29.27981        -0.37700
C          7.46420        29.92892        -0.74689
C         10.96292         3.49341         0.36546
C          9.85405         4.11740         1.03168
C         11.19516         6.17429         1.38745
C          9.90036         5.51170         1.35381
C         11.28690         7.64039         1.64478
C          9.95124         8.41617         1.87141
C         11.19453        10.54950         1.52591
C          9.97579         9.88569         1.62166
C         11.21762        11.98427         1.06842
C          9.92846        12.71828         1.26678
C         11.20603        14.92923         1.20194
C          9.92170        14.19730         1.53628
C         11.17039        16.36171         1.17191
C          9.91710        17.05665         1.18190
C         11.20702        19.15764         1.61859
C          9.90682        18.46597         1.21035
C         11.18473        20.68359         1.49788
C          9.88203        21.37292         1.20327
C         11.14257        23.57637         1.08491
C          9.93922        22.78523         0.70324
C         11.09450        25.07044         0.93705
C          9.86254        25.74493         0.53941
C         11.14647        27.89069         0.26058
C          9.82775        27.24082         0.65815
C         11.12385        29.34252         0.03615
C          9.87741        29.97999        -0.28001
C         13.03140         3.71740        -0.97231
C         12.08212         4.20918        -0.02569
C         13.37507         6.39975         0.02300
C         12.33865         5.52958         0.57939
C         13.49514         7.77065         0.43606
C         12.44663         8.37617         1.18105
C         13.78275        10.54614         1.37055
C         12.48573         9.81161         1.53531
C         13.77417        12.06248         1.37782
C         12.44417        12.79095         1.45526
C         13.72331        14.97903         1.33744
C         12.40694        14.24368         1.19917
C         13.64256        16.39927         0.83069
C         12.41625        17.09352         0.98896
C         13.58783        19.22842         0.63130
C         12.41936        18.51059         0.98622
C         13.62372        20.67842         0.65609
C         12.53707        21.42310         1.40032
C         13.46390        23.50227         0.31287
C         12.40225        22.83666         0.87445
C         13.25059        24.87361        -0.10984
C         12.31164        25.73451         0.40724
C         13.62616        27.94939        -0.15432
C         12.31654        27.17511         0.16457
C         13.55429        29.31962         0.56665
C         12.30549        30.04714         0.13015
C         15.04157         3.96496        -2.35153
C         14.12349         4.47155        -1.36379
C         15.46579         6.56391        -1.21786
C         14.32053         5.83104        -0.85961
C         15.67307         7.89429        -0.72415
C         14.66864         8.50817         0.07792
C         16.01607        10.65490         0.11657
C         15.01204         9.78617         0.84407
C         16.01727        12.05427         0.23466
C         14.92887        12.79748         0.83367
C         16.07413        14.92601         0.43625
C         14.91014        14.20215         0.80013
C         16.07747        16.37904         0.32260
C         14.80624        17.09542         0.43087
C         15.91176        19.20363        -0.35124
C         14.74953        18.49916         0.23614
C         15.90292        20.70674        -0.36763
C         14.72575        21.39933         0.19337
C         15.98083        23.56125         0.16586
C         14.75120        22.84338         0.15012
C         16.03150        25.00356         0.40278
C         15.09958        25.87801        -0.10608
C         16.00459        27.90851         0.80737
C         14.92124        27.24809         0.24841
C         16.06095        29.34786         0.85774
C         14.84442        30.13653         0.39131
C         17.10786         4.13800        -3.66806
C         16.20052         4.62492        -2.66050
C         17.62270         6.70439        -2.49938
C         16.61883         5.81247        -1.82946
C         17.81730         8.02108        -1.99286
C         16.88038         8.59082        -1.07305
C         18.17048        10.73889        -1.23124
C         17.22813         9.90402        -0.40091
C         18.19727        12.17827        -1.03142
C         17.15628        12.82054        -0.20153
C         18.54442        14.87429        -0.00974
C         17.22626        14.19335         0.03111
C         18.56273        16.35630         0.21712
C         17.26400        17.06632         0.10155
C         18.54151        19.22986        -0.52213
C         17.24694        18.45584        -0.40902
C         18.53328        20.77051        -0.47529
C         17.22386        21.49651        -0.38865
C         18.43446        23.48531         0.57499
C         17.22165        22.86289         0.16434
C         18.39656        24.80280         1.25857
C         17.12219        25.58693         1.20374
C         18.44797        27.79784         1.47637
C         17.14774        27.11523         1.31994
C         18.45455        29.21776         1.46483
C         17.23608        29.96073         1.20816
C         18.21451         4.84691        -4.02555
C         19.57923         6.92354        -3.92977
C         18.48193         6.15972        -3.47099
C         19.81891         8.18645        -3.40627
C         18.96076         8.76079        -2.44869
C         20.38439        10.83439        -2.28492
C         19.14649        10.13700        -2.01291
C         20.61795        12.09779        -1.83880
C         19.50501        12.91932        -1.36654
C         20.88218        15.07723        -1.04653
C         19.74115        14.22058        -0.65483
C         20.96268        16.37158        -0.68430
C         19.85245        17.09293        -0.01968
C         20.95774        19.31742        -0.04236
C         19.81407        18.57025        -0.19065
C         20.93331        20.73490         0.06329
C         19.75562        21.46131        -0.01258
C         20.89173        23.62019         0.56293
C         19.68579        22.84677         0.41141
C         20.90434        24.92655         0.95288
C         19.69731        25.58106         1.47344
C         20.85116        27.78997         1.79126
C         19.65763        27.07440         1.59771
C         20.85266        29.18749         1.84242
C         19.67231        29.90085         1.66049
O         19.05322        24.83065         2.55597
O          4.26867         6.43404        -0.54665
O          9.70995        22.83560        -0.75856
O          7.12000        22.37234         1.61496
O         13.20801        12.51509         2.66360
O          5.68525        21.70404        -1.67547
O          6.40590        10.51082         2.46219
O          2.69331         8.97281        -1.21188
O          6.49954        27.36514        -2.40327
O         10.37423        21.25124         2.58592
O         11.08701        24.41502         2.28692
O          2.83880        13.16472        -1.72252
O          4.25031        27.81226         0.41638
O         19.53660        14.14510         0.79138
O         19.43632        16.71988         1.34389
O         14.17055        25.38007        -1.04157
O         12.28511         5.46678         2.04430
O         18.67363        20.04288        -1.72653
O         16.75171        26.23635         2.44416
O         16.39584        21.33277        -1.58142
O         16.38568        18.59038        -1.58681
O         18.38244        12.94895        -2.29180
O         10.80069         7.99565         2.97636
O          6.60988        18.98402         2.29053
O         13.39763        10.05619         2.70040
O          4.62376        16.58740        -1.48619
H          4.13099        16.17233        -2.22537
O          7.40016        25.77124         1.76585
H          6.50696        26.04870         2.06018
O          5.63417         9.56961        -1.04571
H          4.87717         9.18529        -1.54611
O         13.66721        28.17694        -1.58451
H         13.74459        27.29381        -2.01150
O          9.84639        14.29570         3.00790
H          9.01753        13.85674         3.29608
O          4.32816        16.42600         2.13302
H          3.81898        17.17762         2.52651
O         15.01142        30.51857        -0.97816
H         14.72752        29.76008        -1.54112
O          4.47293         5.78340         3.06431
H          5.20608         5.54877         3.67161
O          0.69389        16.37546         1.05880
H          0.66488        17.33834         1.24558
O          1.82461        26.94900         0.27636
H          2.55938        27.13541         0.91037
O         13.44341        29.07712         1.98918
H         12.60233        28.60084         2.16174
O         18.04165         9.52241         0.77368
H         17.40564         9.28691         1.49678
O          4.00065        18.87798         2.01591
H          4.67724        19.11295         2.69334
O         13.01830        21.55770         2.76764
H         12.26393        21.89597         3.30124
O         11.39605        11.90218        -0.42440
H         10.54073        11.60669        -0.80648
O         11.33907        18.86461         3.04017
H         10.73934        19.48599         3.51231
O          9.68389        27.49522         2.09900
H          8.91993        26.94368         2.39773
O          4.24945        28.58663        -3.14054
H          5.14141        28.10905        -3.08216
O          5.51804        12.55579        -1.55370
H          4.68495        12.78700        -2.03406
O         15.70817         9.27935         2.03519
H         15.01796         9.22918         2.74734
O         17.34327         5.22921        -0.67618
H         17.64679         5.97517        -0.11494
O          7.27239         8.28130         3.38163
H          6.71295         9.04207         3.66367
O          1.30861        10.59030         1.79024
H          0.48049        11.05456         2.03481
O         13.94414        15.12130         2.78052
H         13.78259        14.22954         3.17876
O          8.83957        25.19128        -1.52780
H          9.46271        24.50848        -1.86446
H          1.26652         2.26068         1.49088
H         -0.86418         3.48171         1.05048
H         -0.85786         5.87549         0.48547
H         -0.77338         7.70297        -0.16903
H         -0.81566        10.11131        -0.26637
H         -0.77916        12.07190        -0.33784
H         -0.76138        14.49551        -0.57212
H         -0.59498        16.30487        -1.57609
H         -0.37298        18.61162        -2.26996
H         -0.43411        20.55159        -2.20175
H         -0.39843        22.95368        -2.51116
H         -0.32190        24.80161        -2.93211
H         -0.37930        27.23608        -3.09510
H          0.50679        29.50449        -2.39095
H          3.76066         2.22543         1.42106
H          2.56950        30.81934        -2.04777
H          6.26413         2.26207         1.39820
H          4.92419        30.90604        -1.09973
H          8.62808         2.32868         1.00828
H          7.50504        30.99603        -1.02001
H         10.82776         2.46530        -0.00294
H          9.88501        31.06406        -0.47253
H         12.88264         2.71462        -1.39972
H         12.31892        31.13929        -0.00509
H         14.78541         3.02841        -2.87056
H         14.76751        31.07694         0.99585
H         16.87845         3.17972        -4.15748
H         17.29492        31.05956         1.21899
H         18.90085         4.45892        -4.79210
H         20.24849         6.50672        -4.69564
H         20.68091         8.75432        -3.78012
H         21.22567        10.26063        -2.69712
H         21.63562        12.51268        -1.84521
H         21.69063        14.62792        -1.64202
H         21.82461        16.96866        -1.01747
H         21.91254        18.80654         0.14644
H         21.86735        21.23043         0.35909
H         21.83906        23.17224         0.23248
H         21.83840        25.50059         0.87405
H         21.79956        27.25101         1.92069
H         21.79778        29.72236         2.00887
H         19.68175        30.99996         1.66385
