         280
 CSIRO Nanostructure Databank - Neutral Graphene Oxide Data Set
C         30.32926        32.00751         0.14418
C         30.32775        33.21108        -0.12540
C         30.75940        36.08171         1.09564
C         30.63971        37.22397         0.65754
C         30.28761        40.21660        -0.72980
C         30.20490        41.43156        -0.89869
C         32.53598        28.98720        -0.10955
C         31.55085        29.67688         0.15839
C         32.56805        31.67449        -0.88039
C         31.25682        31.00737        -0.37511
C         32.69629        33.20003        -0.84579
C         31.39729        34.19144        -0.42119
C         33.08488        35.91232         0.44579
C         31.78074        35.02966         0.79681
C         33.00540        37.43038         0.17417
C         31.61564        38.00849        -0.10840
C         32.68606        40.15927        -1.22835
C         31.44515        39.31973        -0.79223
C         32.61465        41.68809        -1.25025
C         31.24068        42.41617        -1.20553
C         32.44275        44.36487        -0.38623
C         31.40148        43.73779        -0.60183
C         35.20702        27.29647         0.27643
C         35.08801        28.54378        -0.48454
C         33.83643        29.32916        -0.68162
C         35.24175        31.49576        -1.09710
C         33.87069        30.84709        -1.01606
C         35.33660        33.01232        -1.08405
C         34.07415        33.80597        -0.75400
C         35.53061        35.92197        -0.44931
C         34.25802        35.16785        -0.12384
C         35.41539        37.37397        -0.80920
C         34.17610        38.15455        -0.43721
C         35.30306        40.32502        -1.30216
C         34.03107        39.48901        -1.17674
C         35.20999        41.83816        -1.12078
C         33.86473        42.40681        -0.72978
C         35.01694        44.67272        -0.09794
C         33.79544        43.82045        -0.18297
C         35.14945        45.79875         0.84445
C         37.62467        27.08735         0.55229
C         36.21048        26.70882         0.66964
C         37.72257        28.49883        -0.00485
C         36.48620        29.20855        -0.57838
C         37.87521        31.42591        -0.80045
C         36.53634        30.68653        -0.88884
C         37.95013        32.90643        -1.08030
C         36.66916        33.71038        -1.15901
C         38.01174        35.91814        -1.27764
C         36.77138        35.18105        -0.82179
C         38.00970        37.41930        -1.28635
C         36.66034        38.11738        -1.19613
C         37.79039        40.36459        -0.56693
C         36.63023        39.63041        -1.18322
C         37.73551        41.86645        -0.52807
C         36.46842        42.62955        -0.87935
C         37.63346        44.63890         0.32631
C         36.38293        44.05134        -0.33258
C         37.56998        45.95395         1.08158
C         36.18120        46.43877         1.08006
C         39.96313        24.48250         1.85391
C         38.92450        25.10770         1.61602
C         40.04217        27.28990         1.44604
C         38.69741        26.53889         1.42541
C         40.15284        28.60309         0.78060
C         38.90546        29.33602         0.42848
C         40.42382        31.37993        -0.08389
C         38.98834        30.78660         0.01540
C         40.45215        32.91473        -0.34279
C         39.25972        33.66213        -0.87650
C         40.46624        35.97913        -0.44267
C         39.29902        35.18732        -0.98841
C         40.35361        37.44053        -0.25130
C         39.31312        38.23581        -1.06036
C         40.35458        40.39108        -0.19525
C         39.06157        39.54098        -0.24192
C         40.30859        41.90463        -0.18941
C         39.02951        42.63376        -0.46465
C         40.22093        44.91125         0.00839
C         38.95304        44.13244        -0.20943
C         40.10698        46.32206         0.59653
C         38.75540        46.86095         1.04579
C         39.95767        48.78755         1.94123
C         38.96229        48.04378         1.89481
C         42.59123        24.40562         1.58279
C         41.31816        24.99913         2.00655
C         42.58466        27.22823         1.21716
C         41.32093        26.54068         1.71358
C         42.62160        28.68533         1.43838
C         41.35611        29.37201         1.20705
C         42.60630        31.70589         1.47506
C         41.35625        30.89087         1.04941
C         42.81836        33.00878         0.70137
C         41.66914        33.71654         0.07008
C         42.81966        35.98779         0.32195
C         41.48477        35.21044         0.41109
C         42.69080        37.42952         0.83439
C         41.42219        38.15926         0.48055
C         42.69266        40.41518         0.96760
C         41.55273        39.65732         0.32155
C         42.66752        41.91937         0.91842
C         41.34932        42.70897         0.61700
C         42.68774        44.84692         0.77220
C         41.57137        44.13482         0.00089
C         42.71020        46.35666         0.84897
C         41.38961        47.05492         0.97451
C         42.61285        49.04226         1.68871
C         41.35848        48.28087         2.00061
C         43.62542        25.04712         1.36597
C         45.22533        27.05202         1.13707
C         43.85677        26.44457         0.96919
C         45.22714        28.58033         1.53263
C         43.91151        29.35976         1.69407
C         45.26187        31.60438         1.63721
C         43.93012        30.88413         1.71593
C         45.27887        33.02000         1.09568
C         43.99449        33.80796         1.19970
C         45.27611        35.98508         0.62122
C         44.00166        35.27631         0.97342
C         45.29240        37.44592         0.98404
C         43.98536        38.17113         1.13034
C         45.34931        40.43412         1.20291
C         44.02154        39.68875         1.20091
C         45.32613        41.88600         0.77091
C         44.00551        42.61500         0.68164
C         45.23312        44.90051         0.65026
C         43.98033        44.10579         0.91750
C         45.20754        46.41744         0.79056
C         44.00115        46.99062         1.49589
C         43.67584        48.46179         1.44550
C         47.24474        27.61259        -0.15030
C         46.16182        27.03643        -0.05987
C         47.86267        28.53425         0.84808
C         46.58509        29.32706         1.40770
C         47.79528        31.60551         1.07839
C         46.55914        30.83080         1.47816
C         47.87938        33.09685         1.00846
C         46.55188        33.75605         0.79934
C         47.84935        36.04119         0.70380
C         46.55375        35.23552         0.51773
C         47.65328        37.46643         0.07009
C         46.61512        38.19548         0.92242
C         48.05555        40.43758         0.96965
C         46.68168        39.68590         1.12043
C         47.95850        41.96602         0.71447
C         46.61602        42.67814         0.91698
C         47.75834        44.90037         0.12561
C         46.56265        44.16986         0.74201
C         47.58732        46.33523         0.38503
C         46.60096        46.89713         0.88061
C         50.03209        28.96054        -0.66309
C         49.00840        29.39475         0.31269
C         49.48266        31.67775        -0.79059
C         48.86503        30.88608         0.31504
C         49.87884        32.97667        -0.57975
C         49.10413        33.77205         0.40708
C         50.00295        35.87543        -0.83721
C         49.09543        35.26828         0.21774
C         49.89403        37.36327        -1.11613
C         48.98919        38.16036        -0.17899
C         50.04835        40.43103        -0.85362
C         49.08158        39.65505         0.01537
C         50.21295        41.91020        -0.62251
C         49.12203        42.69686         0.09758
C         50.30320        44.63376        -0.67136
C         48.94643        44.15447        -0.36172
C         51.16849        29.19286        -1.10050
C         52.22117        31.25834        -1.78153
C         52.29216        29.83922        -1.68518
C         51.91624        32.45530        -1.78245
C         51.13548        33.54167        -1.17249
C         52.09600        35.93283        -2.04959
C         51.26043        35.04279        -1.22620
C         52.05198        37.15884        -2.15218
C         51.01229        38.14340        -1.81893
C         52.28360        40.49214        -1.78922
C         51.11547        39.61872        -1.63126
C         52.40740        41.71085        -1.64314
C         51.66181        42.60427        -0.70216
C         51.31287        44.02299        -1.03415
O         41.42698        39.98071        -1.09432
O         49.78948        38.69700         0.88961
O         45.82219        33.02725        -0.26210
O         48.21646        32.41277         2.23482
O         46.68743        43.57664         2.06286
O         33.79381        42.67533         0.71542
O         40.38483        35.59882        -1.86398
O         49.81628        34.65436         1.32372
O         38.03612        36.63185        -2.52771
O         34.09986        35.38852         1.32691
O         49.76401        30.20472         1.26354
O         49.01257        42.61301         1.51585
O         44.60393        31.41288         2.89731
O         40.79944        30.33558         2.22763
O         38.16774        31.92111        -2.12815
O         33.25993        39.52867        -2.40361
O         49.55543        41.41109        -1.82060
O         39.04715        27.30675         2.57615
O         42.78094        33.19871        -0.74439
O         46.90279        38.73080         2.21383
O         44.63883        40.17483         2.42788
O         43.11476        44.34692         2.07507
O         41.68999        37.67122         1.86498
O         49.25511        36.37488        -1.98921
O         36.70095        29.66798        -1.92557
O         31.94673        42.24275        -2.42960
O         42.20277        47.17129        -0.22656
O         44.64848        37.58475         2.28186
O         38.06216        27.31743        -0.80231
O         39.55968        44.87937        -1.29152
O         46.90283        30.00540         2.63975
O         37.43068        41.08204         0.67620
O         36.13671        40.08119        -2.47048
O         39.97837        42.36081        -1.53360
O         42.43437        41.20812         2.16692
O         35.74346        37.60178        -2.20207
O         51.87205        34.32896        -0.16007
O         40.26739        33.12121        -1.77572
O         44.64436        28.76237         2.83633
O         39.25578        47.12956        -0.27911
O         33.27295        33.83897        -1.99300
O         43.05727        26.82939        -0.16128
O         45.00297        45.78833        -0.48920
O         37.67076        44.69167         1.79224
O         38.48813        30.46090         1.33904
O         47.89698        44.48031        -1.27371
O         43.84688        34.72983         2.30775
O         33.87775        38.25710         0.99180
O         35.90664        42.52603        -2.20138
O         45.78372        35.56033        -0.67248
O         34.36474        28.49060        -1.71979
O         50.53480        39.04257        -2.83007
O         41.44595        25.95751         3.05334
O         35.89762        33.48742        -2.35596
O         36.53292        35.55986         0.56947
O         35.74418        44.92803        -1.31318
O         31.51984        31.16201        -1.77066
O         44.67990        42.13737        -0.51910
O         34.51542        31.06219        -2.28467
O         31.32922        38.09384        -1.52563
O         52.20967        42.52422         0.58069
H         53.04277        43.03595         0.62415
O         41.55413        47.70386         3.28993
H         41.41729        48.39387         3.97320
O         53.40965        29.18630        -2.02834
H         53.32644        28.22749        -1.85482
O         32.07006        34.14807         1.84202
H         32.39210        34.65011         2.61947
O         47.02562        37.50532        -1.22086
H         47.52915        36.94878        -1.86218
O         42.26126        32.26093         2.75725
H         42.03656        31.52727         3.37103
O         48.33608        27.74009         1.93446
H         48.56886        28.34896         2.67078
O         42.05390        44.03606        -1.32895
H         41.28068        43.98074        -1.93989
O         39.80088        38.57538        -2.35500
H         39.77185        37.76142        -2.90796
O         43.13831        36.13116        -1.07219
H         43.20759        35.23887        -1.48186
O         44.11845        46.63300         2.85451
H         43.30900        46.93454         3.33375
O         49.56546        31.07401        -1.99958
H         49.91098        31.69314        -2.67449
O         48.66477        40.40026         2.25239
H         48.53547        39.50295         2.63727
O         48.00079        36.26284         2.10771
H         48.72291        35.67964         2.44461
O         41.01111        30.76942        -1.24816
H         40.72076        31.28825        -2.03763
O         45.86766        26.33378         2.15335
H         46.78696        26.67872         2.27508
O         40.69535        42.97688         1.87415
H         41.12194        42.42599         2.57397
O         31.14775        35.04939        -1.48434
H         30.92401        34.54063        -2.29057
O         40.97130        35.14672         1.74764
H         41.07970        36.03594         2.17458
O         38.83681        39.03672         1.09274
H         38.44262        39.75504         1.63983
