         280
 CSIRO Nanostructure Databank - Neutral Graphene Oxide Data Set
C         30.28924        31.66956         1.14898
C         30.57822        32.88136         0.81884
C         30.61395        35.92410        -0.15017
C         30.61794        37.15037        -0.23093
C         30.51213        40.34355        -0.10502
C         30.35538        41.49550        -0.51678
C         32.75710        28.90203         0.28574
C         31.69677        29.51151         0.43669
C         32.84094        31.52397         1.29134
C         31.49316        30.79129         1.13371
C         32.79556        33.05167         1.61813
C         31.62653        33.75666         0.83033
C         32.86949        35.95555         0.63449
C         31.80306        35.01611         0.02970
C         32.85421        37.31370         0.53843
C         31.73485        38.13929        -0.14434
C         32.80508        40.27705         0.68540
C         31.47739        39.45079         0.61468
C         32.85123        41.72824         0.64762
C         31.02031        42.72336        -0.19580
C         32.73772        44.17052        -0.59724
C         31.57203        43.74697        -0.96604
C         35.46184        27.50869        -0.67862
C         35.27319        28.78697        -0.15100
C         34.14920        29.34897         0.67846
C         35.38979        31.60416         0.80831
C         34.05751        30.92199         0.55335
C         35.49022        33.03616         1.30192
C         34.14214        33.80100         1.44799
C         35.34864        36.01332         0.88300
C         34.09941        35.26637         1.09829
C         35.32723        37.42839         1.20906
C         33.99583        38.13045         1.03119
C         35.28735        40.28385         0.69988
C         34.00818        39.59252         0.77297
C         35.31100        41.67352         0.09256
C         34.00178        42.41787         0.26448
C         35.28109        44.44301        -0.46815
C         34.01532        43.76121        -0.26368
C         35.34302        45.82019        -0.91248
C         37.59246        27.57867        -1.62514
C         36.48380        26.82115        -1.01152
C         37.60713        29.03678        -1.15770
C         36.56334        29.49710        -0.17050
C         37.81148        31.76591        -0.06300
C         36.61328        30.97148         0.34738
C         37.78975        33.18879         0.14690
C         36.44621        33.84754         0.38391
C         37.69844        36.08031        -0.01499
C         36.63545        35.30435         0.88522
C         37.68966        37.63596         0.21806
C         36.63843        38.18764         1.24215
C         37.76607        40.39224         0.69023
C         36.50310        39.66811         0.89318
C         37.80190        41.75294         0.45738
C         36.49920        42.52518         0.59173
C         37.80509        44.65177        -0.03288
C         36.50022        43.86703        -0.10246
C         37.80614        45.86501        -0.98612
C         36.51736        46.24887        -1.20598
C         40.06967        24.82339        -2.01989
C         39.03436        25.49667        -2.06632
C         40.17058        27.47212        -1.29529
C         38.91421        26.98162        -2.09804
C         40.11529        28.89962        -0.83036
C         38.94022        29.79239        -1.29325
C         40.21691        31.86330        -0.65268
C         38.93217        31.13841        -0.58338
C         40.26821        33.35813        -0.36403
C         38.95674        33.96249         0.07325
C         40.10217        35.97162         1.05829
C         38.98110        35.36473         0.25247
C         40.20543        37.49000         0.97011
C         38.99730        38.27376         0.65768
C         40.30121        40.39172         1.09592
C         39.01731        39.63809         0.78669
C         40.28994        41.79500         0.53141
C         39.07617        42.44913         0.26470
C         40.32432        44.48472        -0.39270
C         39.07463        43.81620        -0.16406
C         40.28534        45.89211        -0.90698
C         39.03328        46.25788        -1.73322
C         40.21128        48.43241        -2.01490
C         39.21596        47.71056        -2.05081
C         42.65537        24.78460        -1.79648
C         41.29827        25.13376        -1.22519
C         42.66400        27.47134        -1.04035
C         41.30125        26.72804        -1.11336
C         42.66153        28.77139        -0.24499
C         41.36681        29.55740        -0.33410
C         42.70588        31.72137        -0.00260
C         41.46692        31.05239        -0.45855
C         42.73295        33.06087         0.26057
C         41.46199        33.79927         0.47987
C         42.70478        36.02265         0.62450
C         41.46539        35.24742         0.89749
C         42.71325        37.38497         0.48871
C         41.52379        38.21204         0.80440
C         42.84915        40.34156         0.72957
C         41.50919        39.65975         0.56315
C         42.84071        41.81979         0.38317
C         41.56592        42.59270         0.68866
C         42.81054        44.72941         0.06825
C         41.53529        43.91993        -0.02172
C         42.83158        45.97364        -0.79851
C         41.57135        46.66422        -1.08374
C         42.73605        48.75504        -1.26154
C         41.64042        47.98314        -1.96185
C         43.69150        25.33610        -1.40689
C         45.24944        27.33738        -0.55630
C         43.94845        26.63262        -0.78085
C         45.28509        28.84108        -0.37437
C         43.97188        29.48767        -0.04234
C         45.17072        31.63532         0.45143
C         43.99680        30.99771        -0.25968
C         45.17006        33.10913         0.58629
C         43.96875        33.76681         0.53422
C         45.16246        35.96641         0.86219
C         43.95598        35.24220         0.22999
C         45.24361        37.38425         0.30913
C         43.95542        38.11968         0.09432
C         45.27911        40.30293         0.06417
C         43.91975        39.63655        -0.09865
C         45.30692        41.70651         0.01574
C         44.03507        42.45382         0.08173
C         45.30466        44.55588        -0.10695
C         44.09156        43.90122        -0.05957
C         45.32832        46.05696        -0.32412
C         44.08927        46.75535        -0.78558
C         43.75733        48.18282        -0.85998
C         47.59702        27.61016        -1.04552
C         46.59009        26.90316        -0.97882
C         47.76618        29.09636        -1.08126
C         46.44083        29.57802        -0.40097
C         47.71604        31.72192         0.41542
C         46.47027        30.92763         0.23759
C         47.68317        33.03449         0.80697
C         46.43802        33.80959         0.75041
C         47.70972        35.93876         1.07504
C         46.46366        35.18571         0.79173
C         47.71197        37.43554         0.88923
C         46.48378        38.15344         0.46500
C         47.78097        40.16057        -0.11020
C         46.47446        39.50711         0.21077
C         47.83652        41.65069         0.23501
C         46.55790        42.44089        -0.01280
C         47.83942        44.65838        -0.04493
C         46.57580        43.83808        -0.06549
C         47.51815        45.98408         0.36499
C         46.48000        46.67458         0.39438
C         50.12583        28.79673         0.09234
C         49.02272        29.65568        -0.41816
C         50.06756        31.36524         1.33328
C         49.00390        30.99291         0.29045
C         50.15061        32.90128         1.55872
C         48.83865        33.71532         1.54013
C         50.18459        35.88125         1.22347
C         49.01404        35.19801         1.14935
C         50.30487        37.41190         1.05408
C         49.00456        38.14786         0.75837
C         50.31987        40.25495         0.47134
C         49.02427        39.46034         0.41778
C         50.27137        41.55858        -0.31678
C         49.04113        42.09852        -0.54632
C         50.38659        44.47708        -0.63997
C         48.96654        44.27107        -0.74213
C         51.20695        29.41484         0.41341
C         52.49391        31.58839         1.02469
C         51.45373        30.66106         0.94649
C         52.57678        32.84822         1.05120
C         51.46187        33.66443         1.57960
C         52.48907        35.77824         0.59556
C         51.51777        35.18260         1.59377
C         52.44122        36.90268         0.09683
C         51.28640        37.81597        -0.13681
C         52.41725        40.15366        -0.60195
C         51.52292        39.30181        -0.13044
C         52.68103        41.44117        -0.80714
C         51.53749        42.23158        -0.73676
C         51.30332        43.64430        -0.82512
O         41.45220        34.15907         1.88805
O         37.06404        29.79875         1.15714
O         50.88301        33.14182         2.81336
O         41.07001        31.51046        -1.80783
O         37.08781        28.66482        -2.46354
O         40.36481        29.06671         0.60629
O         45.73438        30.88575         1.54401
O         45.16751        46.35406        -1.72077
O         47.54600        36.84259         2.24979
O         40.68190        46.85444         0.09227
O         31.71493        42.47433         1.06040
O         43.25271        28.88077         1.06924
O         44.55562        26.64534         0.51377
O         34.19443        34.78774         2.51731
O         34.46176        37.76803         2.37182
O         40.92015        37.93603         2.18526
O         49.49321        30.88444        -1.08553
O         32.23173        30.75275         2.37384
O         48.78769        43.08480        -1.50315
O         44.68882        37.55902        -1.06131
O         42.07210        47.64378        -3.24763
H         42.18547        48.45321        -3.78581
O         43.22214        40.23616         2.13399
H         42.41840        40.45537         2.66313
O         44.27200        31.17204        -1.68321
H         43.43518        31.06956        -2.18650
O         36.34802        42.80775         2.01469
H         36.53747        41.98514         2.51568
O         36.08968        32.94977         2.61517
H         35.47102        32.48055         3.21449
O         37.18571        38.07269         2.56397
H         36.44399        37.90032         3.18379
O         48.15451        41.80502         1.63760
H         47.38487        41.51184         2.16883
O         42.83806        45.25970         1.43922
H         42.35797        44.61481         2.01735
O         51.86128        35.59044         2.90811
H         52.63934        35.07450         3.20434
O         35.54111        41.49250        -1.33313
H         34.78341        40.99444        -1.70597
O         39.10379        45.49236        -2.94584
H         38.31045        45.68577        -3.48789
O         39.68056        35.72775         2.42379
H         40.24553        36.28765         3.00305
O         32.46491        33.16619         2.99959
H         31.92930        32.37506         3.24758
O         43.51705        39.85401        -1.47628
H         44.09872        39.29298        -2.03593
O         50.90423        37.93322         2.23747
H         50.38547        37.64047         3.01434
O         42.83307        27.94194        -2.40989
H         42.83146        27.16281        -3.00876
O         31.01855        39.14531         1.91590
H         30.80010        39.97621         2.38562
O         47.87390        40.10133        -1.56664
H         47.77913        39.16662        -1.84725
O         32.18598        38.49759        -1.44679
H         32.19099        37.69296        -2.00688
O         37.17787        35.36012         2.20496
H         36.62246        34.79206         2.79154
O         48.36634        33.76725         2.90644
H         49.15589        33.87840         3.48423
O         40.52614        34.02063        -1.64028
H         40.93500        33.34986        -2.23811
O         33.77115        31.25604        -0.83566
H         34.51738        30.96251        -1.40121
O         47.70909        29.55986        -2.42077
H         48.47516        30.15566        -2.58028
O         35.72500        33.86162        -0.86925
H         36.22659        34.45189        -1.48737
O         44.00578        35.15345        -1.21495
H         44.04219        36.06312        -1.59852
O         49.63366        30.79437         2.55731
H         50.11422        31.23547         3.29166
O         50.64451        40.48464         1.82264
H         51.40811        41.09617         1.86776
O         39.15156        27.44220        -3.43637
H         38.37314        27.20747        -3.98537
O         37.32700        38.22425        -1.06549
H         37.81219        39.06759        -1.19006
O         37.85874        45.16192         1.33703
H         37.37578        44.52348         1.91508
O         39.12697        30.11149        -2.68060
H         39.07832        29.26991        -3.20043
O         44.85528        36.08797         2.27278
H         45.68575        36.36224         2.73129
O         37.34676        35.81410        -1.38705
H         37.30472        36.68234        -1.85855
O         34.36701        29.03879         2.04107
H         34.57301        28.08587         2.13146
O         41.18882        24.63900         0.07453
H         41.21035        23.66093         0.06073
O         41.64210        42.91430         2.14520
H         41.19645        42.17019         2.62880
O         40.40876        40.52272         2.58768
H         40.41121        39.58860         2.92412
O         32.30664        34.64683        -1.26300
H         31.78155        33.89222        -1.60448
O         50.62677        37.46849        -1.35637
H         51.21899        37.68250        -2.10738
