         280
 CSIRO Nanostructure Databank - Neutral Graphene Oxide Data Set
C         30.51667        31.57844        -1.18412
C         30.46154        32.84220        -1.01177
C         30.44061        36.00380        -0.89218
C         30.36305        37.25249        -0.88956
C         30.45105        40.39417        -0.38505
C         30.29032        41.66546        -0.17858
C         32.98531        28.71472        -1.21721
C         31.91516        29.36603        -1.28374
C         32.89805        31.52555        -0.60554
C         31.58311        30.71534        -1.13685
C         32.87105        32.99209        -1.04081
C         31.55686        33.73770        -0.95031
C         32.82808        35.94897        -1.05106
C         31.53266        35.11257        -0.88036
C         32.71513        37.38845        -0.57300
C         31.51941        38.10199        -0.67057
C         32.79262        40.33004        -0.83733
C         31.47812        39.53152        -0.55581
C         32.73365        41.84338        -0.46200
C         31.37429        42.49528        -0.10586
C         32.64799        44.43749         0.66324
C         31.62018        43.81515         0.36273
C         35.63860        27.22564        -0.51148
C         35.56221        28.65891        -1.01553
C         34.24773        29.31286        -0.61320
C         35.42541        31.55416        -0.50563
C         34.20345        30.82015        -1.05572
C         35.39537        32.99748        -0.49427
C         34.16412        33.75045        -0.91492
C         35.20672        35.89791        -0.25235
C         34.09188        35.21717        -0.62027
C         35.13801        37.27809         0.37697
C         33.88484        38.09548         0.00057
C         35.31309        40.27828        -0.16403
C         33.93509        39.60621        -0.10131
C         35.28993        41.77909         0.10689
C         34.00401        42.53490        -0.01089
C         35.18852        44.69403         0.38675
C         34.02050        43.84332         0.85207
C         35.51530        46.06432         0.81326
C         37.99345        27.28141         0.21623
C         36.71963        26.74541        -0.15472
C         37.92609        28.75801         0.09055
C         36.74081        29.41647        -0.34758
C         37.73636        31.56183         0.41730
C         36.59901        30.83331        -0.18529
C         37.71178        33.10090         0.37719
C         36.51886        33.74389        -0.18174
C         37.76197        35.91509         0.12166
C         36.55506        35.22635        -0.46722
C         37.68732        37.34436         0.60545
C         36.41927        38.07360         0.22882
C         37.66330        40.29646         0.83206
C         36.32541        39.51321         0.70508
C         37.69971        41.79206         0.68844
C         36.45738        42.47641         0.24624
C         37.80352        44.67344         0.10636
C         36.51205        43.94791         0.07868
C         37.74538        46.17070        -0.20876
C         36.58344        46.67118         0.66159
C         40.33105        24.51935         1.05660
C         39.30591        25.16867         0.75414
C         40.38977        27.30423         0.84799
C         39.09468        26.59010         0.64638
C         40.35571        28.80263         0.70687
C         39.08903        29.50871         0.44193
C         40.19951        31.72179         0.84048
C         39.05786        30.92171         0.53775
C         40.18722        33.13893         0.73296
C         39.00393        33.80766         0.36939
C         40.28737        35.91171        -0.02363
C         38.95976        35.23392         0.20705
C         40.20914        37.44977        -0.00671
C         38.86473        38.19368         0.08900
C         40.21554        40.35570         0.34180
C         38.98933        39.52644         0.87591
C         40.28918        41.79908         0.80208
C         39.00385        42.57295         0.75173
C         40.27516        44.68302         0.41391
C         39.02041        44.02555         0.40179
C         40.36512        46.14465         0.20491
C         39.06617        46.88409        -0.04148
C         40.24726        48.95437         0.57395
C         39.22357        48.30223         0.33954
C         42.90121        24.60892         1.68351
C         41.73843        24.91083         0.85751
C         42.76407        27.43138         1.80357
C         41.47243        26.64962         1.67499
C         42.78636        28.85186         1.33722
C         41.47470        29.56404         1.33093
C         42.80131        31.75272         1.34842
C         41.43635        31.05154         1.32138
C         42.73612        33.18480         0.85489
C         41.43940        33.91362         1.18997
C         42.68206        36.03206         0.53180
C         41.45403        35.35714         0.74481
C         42.71550        37.39973         0.29988
C         41.47075        38.19121         0.27687
C         42.76919        40.34828         0.21606
C         41.52688        39.63449         0.72759
C         42.74778        41.80488         0.28796
C         41.58236        42.48447         0.54066
C         42.84223        44.69124         0.82190
C         41.53357        43.95956         0.72316
C         42.88153        46.16695         0.63278
C         41.56032        46.91776         0.82569
C         42.91776        48.97234         0.84756
C         41.62627        48.43232         0.25896
C         43.95069        25.24979         1.89490
C         45.31060        27.42426         1.59474
C         44.10246        26.70582         2.01002
C         45.16744        28.70241         0.69386
C         43.92054        29.50685         0.99664
C         45.14094        31.66973         0.33548
C         43.81225        30.94933         0.48548
C         45.12888        33.03153         0.22810
C         43.87308        33.78716         0.41144
C         45.21424        35.94299         0.11329
C         43.84142        35.22106        -0.09022
C         45.19040        37.40174        -0.29621
C         43.90471        38.15505        -0.12107
C         45.25513        40.26826         0.36065
C         43.92102        39.63340         0.03339
C         45.27944        41.74787         0.12452
C         44.02423        42.56624        -0.04684
C         45.38076        44.63474         0.33168
C         44.15329        43.87458         0.79973
C         45.28973        46.14059        -0.01772
C         44.08363        46.82658         0.55502
C         43.91936        48.25238         0.65987
C         47.57552        27.33317         0.77435
C         46.62689        26.98928         1.57265
C         47.60394        28.65200         0.13216
C         46.45870        29.53097         0.68239
C         47.62454        31.52188        -0.36337
C         46.27399        30.80494        -0.21593
C         47.64035        33.01250        -0.38175
C         46.39356        33.77351        -0.09492
C         47.63272        35.93194        -0.71952
C         46.29398        35.18385        -0.69195
C         47.66958        37.39743        -0.55311
C         46.48916        38.13465        -0.26882
C         47.72752        40.24359        -0.24575
C         46.50574        39.53778        -0.13412
C         47.73505        41.76675        -0.36730
C         46.58604        42.42509         0.44090
C         47.86677        44.58797         0.20411
C         46.54950        43.93153         0.25050
C         47.68021        46.00930         0.23302
C         46.65202        46.69341         0.34593
C         50.14601        28.81732        -0.44452
C         48.76983        29.31253        -0.55007
C         50.08378        31.49354        -0.98463
C         48.77212        30.82647        -0.57871
C         50.04431        33.01029        -1.03092
C         48.70501        33.69019        -1.25384
C         50.00698        35.90469        -1.39899
C         48.74600        35.20762        -1.05922
C         50.09364        37.40705        -1.14612
C         48.88639        38.12489        -0.66357
C         50.17169        40.34303        -0.80147
C         48.91702        39.53232        -0.49451
C         50.23914        41.70444        -0.09418
C         49.07368        42.41015        -0.01838
C         50.37446        44.35743         0.26384
C         49.03374        43.87227         0.18786
C         51.21063        29.42985        -0.35173
C         52.52657        31.67550        -0.71034
C         51.36338        30.90332        -0.14292
C         52.39840        32.87499        -0.98395
C         51.24430        33.72098        -1.18302
C         52.35770        35.98575        -1.47121
C         51.26674        35.10604        -1.40894
C         52.56098        37.21201        -1.32274
C         51.43610        38.05192        -0.85676
C         52.59520        40.43256        -0.78643
C         51.46491        39.51952        -0.65020
C         52.65376        41.65387        -0.60112
C         51.64859        42.35695         0.29707
C         51.49832        43.85050         0.13560
O         44.40564        37.71786        -1.46259
O         33.49930        38.99352         1.12592
O         42.09309        44.37934         2.06989
O         45.82769        30.40094        -1.48526
O         33.62177        33.35768        -2.23479
O         33.50580        42.67567        -1.37036
O         43.43947        35.25181        -1.42734
O         49.93575        36.88914        -2.49581
O         39.67688        42.24380         2.03097
O         37.51141        41.14864         2.00618
O         35.57496        44.45714        -0.95805
O         37.41244        32.35376         1.60015
O         39.96009        46.58413        -1.14395
O         47.77490        28.63409        -1.30452
O         51.51603        38.61286         0.47493
O         40.85830        27.93778        -0.38036
O         40.98888        38.01222        -1.11438
O         41.16804        30.27890         2.56861
O         43.37784        27.29326         3.13609
O         47.44490        33.64332         0.93218
O         45.12651        46.23737        -1.42987
H         45.87962        45.79017        -1.86951
O         32.78853        31.55283         0.80382
H         33.07256        30.68130         1.17180
O         35.76018        40.13706        -1.52959
H         35.11797        40.60595        -2.11260
O         35.71377        28.67739        -2.42559
H         36.53701        28.20275        -2.66463
O         51.20055        31.20962         1.20696
H         51.95757        30.86605         1.72355
O         42.07598        24.98663        -0.46551
H         41.28073        25.08745        -1.02559
O         32.97466        36.04217        -2.50350
H         33.11531        35.12067        -2.83852
O         46.78106        29.96593         2.00102
H         46.69303        29.21103         2.62231
O         43.92553        43.01699        -1.42830
H         43.93688        42.23211        -2.01592
O         48.32855        33.43773        -2.63436
H         47.47238        33.90929        -2.79435
O         33.05177        40.27216        -2.24653
H         32.92040        39.35310        -2.56261
O         50.06231        40.67478        -2.21902
H         50.88273        41.14882        -2.48167
O         40.96585        26.33860         2.93618
H         41.71967        26.31049         3.57003
O         37.70886        37.24414         2.06000
H         36.84740        36.82560         2.31421
O         45.57181        35.93453         1.50301
H         45.93438        35.05689         1.75274
O         44.44658        43.47336         2.15789
H         43.59186        43.49590         2.65753
O         40.15133        40.52544        -1.08109
H         40.14759        39.63501        -1.51633
O         41.76638        48.41210        -1.12503
H         41.75351        49.32363        -1.47913
O         45.93118        35.04462        -2.07360
H         44.92551        35.11634        -2.14380
O         43.24762        31.79586         2.72225
H         42.74751        31.09295         3.20689
O         34.20022        43.46583         2.20661
H         34.28980        44.26993         2.75929
O         41.37613        33.94307         2.65002
H         41.99534        33.25755         3.00153
O         44.98380        28.14697        -0.60215
H         45.30487        28.85887        -1.26063
O         41.74851        39.66384         2.14952
H         40.90721        39.39537         2.59875
O         34.99578        36.95322         1.80670
H         34.69254        37.79793         2.22971
O         50.32645        31.09468        -2.34814
H         49.64248        31.51671        -2.91431
O         43.25782        30.86356        -0.84427
H         44.03476        30.66922        -1.44402
O         51.91110        42.03562         1.62473
H         52.76069        42.43378         1.90229
O         36.78271        35.37330        -1.92296
H         36.09887        34.84719        -2.39205
O         38.47958        38.54347        -1.25600
H         38.36296        37.71763        -1.77415
O         34.20138        30.87773        -2.48360
H         34.87241        30.24646        -2.83498
O         39.21619        39.23230         2.26568
H         38.85603        40.00482         2.76826
O         37.33152        46.32994        -1.55319
H         37.49094        47.25510        -1.83108
O         34.13679        29.22714         0.80048
H         34.38425        28.31488         1.07389
O         46.89246        42.20262         1.85277
H         46.19788        42.69957         2.35670
O         47.48569        42.05732        -1.76039
H         48.21347        41.63811        -2.27934
O         45.31897        40.06610         1.82508
H         46.06889        40.62624         2.15484
O         40.67813        35.47073        -1.35906
H         41.68736        35.47865        -1.46132
O         35.79275        39.45978         2.05209
H         36.51586        39.13469         2.63314
O         41.30845        47.02435         2.23026
H         41.47070        46.13753         2.63162
