         236
 CSIRO Nanostructure Databank - Neutral Graphene Oxide Data Set
C        -11.04646         0.71357        -0.51410
C         -9.84854         1.49431        -0.28701
C         -8.61217         0.79485        -0.01639
C         -7.50670         1.47480         0.44229
C         -6.25784         0.75306         0.74634
C         -4.96529         1.50887         0.86221
C         -3.75518         0.76407         0.38873
C         -2.47675         1.44575         0.05896
C         -1.33423         0.72400        -0.19611
C         -0.25779         1.39046        -1.02903
C          1.03960         0.56894        -1.10526
C          2.31406         1.34478        -1.32847
C          3.60203         0.67168        -1.05808
C          4.80776         1.39464        -0.98964
C          6.06628         0.65318        -0.55153
C          7.32963         1.39520        -0.92475
C          8.56728         0.65396        -0.89315
C         10.38756         1.67020        -0.00267
C         11.23090         0.61684         0.50884
C         -9.86645         2.89672        -0.25534
C         -8.72922         3.66564         0.09170
C         -7.53787         2.94293         0.60611
C         -6.26152         3.70686         0.84028
C         -4.86860         3.03553         0.91239
C         -3.91340         3.50965        -0.20417
C         -2.52847         2.87238        -0.15148
C         -1.34515         3.55795        -0.37094
C         -0.10842         2.86462        -0.66557
C          1.05747         3.57291        -0.89461
C          2.27610         2.85157        -1.36150
C          3.60172         3.55927        -1.35371
C          4.83039         2.79321        -1.14013
C          6.10456         3.61269        -1.19805
C          7.31860         2.75420        -1.04078
C          9.02607         3.71406         0.08837
C         10.11850         2.89462         0.56545
C         -8.70417         5.07245        -0.04505
C         -7.55780         5.85247         0.17900
C         -6.27976         5.22832         0.70112
C         -5.10116         5.82281        -0.03618
C         -3.86701         5.03971        -0.28983
C         -2.58750         5.77118        -0.03363
C         -1.29559         5.01827        -0.15859
C         -0.07644         5.76985        -0.44912
C          1.12630         5.02927        -0.71985
C          2.34332         5.70245        -0.73524
C          3.63000         5.03657        -1.00690
C          4.85722         5.60336        -0.36700
C          6.04264         4.86186        -0.29696
C          7.13526         5.36012         0.50761
C          8.36864         4.65062         0.84122
C         -7.49368         7.25708        -0.00152
C         -6.28504         7.98234         0.09493
C         -5.02976         7.29107         0.14440
C         -3.80717         7.95459         0.11586
C         -2.57389         7.25253        -0.07407
C         -1.34497         7.91866        -0.14460
C         -0.10125         7.18908        -0.35154
C          1.12440         7.89670        -0.37731
C          2.41213         7.20253        -0.72061
C          3.58337         7.70453         0.08864
C          4.74601         6.90221         0.23316
C          5.85436         7.41817         0.97094
C          6.98922         6.60031         1.14463
C         -6.22335         9.42758        -0.05847
C         -5.05692        10.10728         0.05217
C         -3.78628         9.41418         0.48066
C         -2.49254        10.08052         0.09407
C         -1.34072         9.37941        -0.09317
C         -0.04099        10.13878        -0.28693
C          1.18887         9.28427        -0.07922
C          2.38067         9.83328         0.37230
C          3.54694         9.01879         0.59162
C          4.67523         9.52330         1.30949
C          5.78498         8.73861         1.51162
C        -11.05728        -0.64799        -0.57062
C         -9.80447        -1.42985        -0.58045
C         -8.54622        -0.66459        -0.28050
C         -7.36372        -1.40862         0.21019
C         -6.24506        -0.72132         0.54171
C         -5.00970        -1.47200         0.98721
C         -3.77188        -0.70950         0.53271
C         -2.46348        -1.40208         0.69564
C         -1.20952        -0.67437         0.28143
C         -0.01601        -1.50215         0.02393
C          1.12227        -0.88239        -0.66339
C          2.42851        -1.54663        -0.55294
C          3.61114        -0.81289        -1.06272
C          4.90649        -1.56179        -1.19712
C          6.16522        -0.81077        -0.93610
C          7.37798        -1.44110        -0.79882
C          8.62291        -0.70050        -0.62152
C          9.86288        -1.39558        -0.28580
C         11.03002        -0.71547         0.25415
C         -9.78174        -2.90883        -0.43996
C         -8.65677        -3.60237        -0.08239
C         -7.47334        -2.88862         0.54041
C         -6.17510        -3.63324         0.39343
C         -4.90672        -2.83808         0.28838
C         -3.65153        -3.55821         0.74859
C         -2.46953        -2.87552         0.77016
C         -1.14605        -3.50230         1.02226
C          0.08444        -2.81132         0.51043
C          1.33614        -3.50558         0.42469
C          2.51697        -2.82853        -0.01650
C          3.93084        -3.37797         0.25958
C          4.82970        -3.08636        -0.96357
C          6.21455        -3.70200        -0.85457
C          7.47991        -2.91252        -0.90584
C          8.73569        -3.59918        -0.50761
C          9.88474        -2.78758        -0.24826
C         -8.57579        -5.04252        -0.18772
C         -7.39064        -5.74134        -0.02627
C         -6.14877        -5.01396         0.24721
C         -4.91098        -5.71917         0.33018
C         -3.71620        -5.02466         0.84893
C         -2.41877        -5.77976         0.98345
C         -1.13934        -5.00396         1.18061
C          0.17276        -5.73390         1.04106
C          1.42602        -4.95216         0.74153
C          2.66266        -5.70461         0.40704
C          3.94647        -4.95986         0.61461
C          5.12893        -5.70316         0.03333
C          6.27558        -5.09067        -0.37003
C          7.56455        -5.79738        -0.34790
C          8.76166        -4.97850        -0.39568
C         -7.29849        -7.16983        -0.20960
C         -6.09240        -7.83641        -0.20076
C         -4.84454        -7.11762         0.05236
C         -3.62085        -7.78379        -0.01840
C         -2.32771        -7.03364         0.13561
C         -1.14736        -7.91106         0.50856
C          0.13741        -7.21674         0.79666
C          1.33911        -7.81734         0.07879
C          2.65163        -7.10371         0.34140
C          3.84145        -7.86380         0.27331
C          5.12766        -7.20018        -0.10912
C          6.36890        -7.84802         0.49761
C          7.61489        -7.12231         0.02266
C         -5.99536        -9.27842        -0.39076
C         -4.80895        -9.90109        -0.56948
C         -3.52980        -9.11667        -0.72180
C         -2.26455        -9.89743        -0.44367
C         -1.11113        -9.30642        -0.01647
C          0.15770       -10.00306         0.10235
C          1.36172        -9.32700         0.21567
C          2.61960        -9.99349         0.26154
C          3.82993        -9.28844         0.28295
C          5.11653        -9.98405         0.20672
C          6.30415        -9.34029         0.24686
O          6.24239         4.13065        -2.55860
H          7.16959         4.44145        -2.65014
O          6.01575         0.67268         0.92102
H          5.54552        -0.13557         1.22586
O         -4.70673         5.47756        -1.40807
O          2.68388         7.58085        -2.12975
H          3.29332         6.90843        -2.50790
O         -7.73346        -2.90519         1.99134
H         -6.90430        -2.60052         2.43627
O         -3.42637        -8.76718        -2.16343
H         -4.27949        -8.35984        -2.42824
O          4.11097        -4.99983         2.04774
H          4.33689        -4.04739         2.29469
O          5.23137        -7.45483        -1.54816
H          4.44287        -7.06665        -1.98507
O         -5.59397         1.00636         2.08264
O         -1.62477        -0.78290         1.71354
O          4.18573        -3.71287        -2.08293
H          4.71345        -3.50168        -2.88372
O          0.86869        -0.48148        -2.09584
O         -0.01171        11.30879         0.53297
H         -0.17540        11.04218         1.46049
O          2.15377         2.08076        -2.60980
O         -1.11219        -4.13568         2.33817
O         -0.58643        -7.89411         1.86679
O          1.14659        -7.49239        -1.28903
O          1.06152        -5.35815         2.12640
O         -7.09811         3.34953         1.98616
O          6.32067        -7.66352         1.93772
H          7.12033        -8.07125         2.32909
O         -5.05742        -1.68996         2.40545
H         -5.15843        -0.80254         2.82677
O         -1.90094         5.31953         1.18081
O         -3.29593        -5.71427         2.11292
O         -3.80323         9.46051         1.96190
H         -3.18081         8.77333         2.28282
O         -0.77890         1.43251        -2.39213
H         -0.00500         1.51347        -2.99507
O          8.52733         3.45104        -1.21060
O          3.72612         4.59468        -2.40370
O         -6.09849         5.74307         2.05209
H         -6.67964         5.20166         2.63374
O          6.92183        -3.51022        -2.13478
O         -2.00633        -6.50906        -1.19483
H         -2.02142        -7.26656        -1.82801
O         -8.88552        -0.99805        -1.67607
O          4.17136        -1.21590        -2.40501
O         -4.74295        -2.64242        -1.14798
H         -5.01562        -1.72939        -1.39387
O         -4.53351         2.99175        -1.40254
H         -4.08378         3.37224        -2.18631
O         -4.28086         3.39185         2.16577
H         -4.88424         3.06412         2.86833
O          9.74296         1.34335        -1.20889
O          4.42710        -2.66720         1.34284
O         -4.05244        -0.12862        -0.78005
H         11.79996        -1.40077         0.64698
H         12.08868         0.90152         1.13775
H         10.58053         3.15990         1.52656
H          8.82905         4.93619         1.79959
H          7.81725         6.97461         1.76499
H          6.64665         9.12768         2.07293
H          4.63886        10.54789         1.70677
H          2.40824        10.89655         0.65353
H         -0.00430        10.50232        -1.35300
H         -2.44184        11.17955         0.14598
H         -5.03942        11.20104        -0.06715
H         -7.15445         9.96338        -0.29901
H         -8.42104         7.80560        -0.23063
H         -9.61583         5.57071        -0.41166
H        -10.79103         3.42405        -0.53654
H        -11.99941         1.26048        -0.57794
H        -12.01241        -1.18758        -0.65299
H        -10.67181        -3.46328        -0.77969
H         -9.48182        -5.58832        -0.49469
H         -8.22639        -7.73401        -0.39040
H         -6.92850        -9.86222        -0.37218
H         -4.77344       -10.99130        -0.71452
H         -2.24317       -10.94194        -0.79226
H          0.15022       -11.10544         0.08962
H          2.64247       -11.09324         0.19280
H          5.08958       -11.07975         0.09860
H          7.24271        -9.91505         0.19721
H          8.59365        -7.59412         0.21249
H          9.72314        -5.47149        -0.17890
H         10.81330        -3.29428         0.05895
