         344
 CSIRO Nanostructure Databank - Neutral Graphene Oxide Data Set
C          1.54667         1.94096         1.52386
C          1.46908         3.33668         1.33126
C          2.74316         1.27845         1.34878
C          2.58838         4.09106         0.98844
C          1.53407         6.30045         1.69933
C          1.62042         7.63420         1.87609
C          2.38005         5.57696         0.67749
C          2.68158         8.44419         1.28465
C          1.54551        10.61224         1.79650
C          1.51802        12.00239         1.74392
C          2.67311         9.88800         1.35263
C          2.64184        12.74176         1.33572
C          1.35877        14.89057         1.09980
C          1.32536        16.25418         0.91649
C          2.59921        14.19367         1.16810
C          2.53055        16.99677         0.78183
C          2.51459        18.40893         0.63763
C          3.91217         2.00070         0.97323
C          3.83582         3.42290         0.79462
C          5.13178         1.32403         0.74507
C          5.03793         4.12882         0.45129
C          3.68177         6.33277         0.41811
C          3.76321         7.79018         0.70587
C          4.96810         5.59916         0.23767
C          4.95306         8.50751         0.33563
C          3.81581        10.61780         0.90142
C          3.83642        12.04268         0.98923
C          4.96648         9.93277         0.40920
C          5.05465        12.75199         0.75419
C          3.79574        14.90385         1.00410
C          3.78173        16.30894         0.81615
C          5.10273        14.18950         1.23797
C          5.00588        17.04309         0.67584
C          3.70056        19.10557         0.54017
C          4.94938        18.43389         0.54835
C          6.29953         2.02383         0.38588
C          6.24469         3.45740         0.29157
C          7.50971         1.34737         0.07331
C          7.55195         4.20565         0.13559
C          6.27214         6.37096         0.37214
C          6.13417         7.81952        -0.03763
C          7.31078         5.59704        -0.45868
C          7.26240         8.52295        -0.48426
C          6.14170        10.65532         0.04830
C          6.19593        12.08099         0.28971
C          7.27521         9.94738        -0.44093
C          7.43668        12.78904         0.06501
C          6.32444        14.95425         0.77086
C          6.28458        16.32155         0.62038
C          7.60911        14.14379         0.77331
C          7.48751        17.09385         0.31511
C          6.18514        19.28681         0.45990
C          7.44661        18.50945         0.18424
C          8.65686         2.02304        -0.42376
C          8.65452         3.45257        -0.56815
C          9.82401         1.30857        -0.76048
C          9.77569         4.13766        -1.06593
C          8.58475         6.34890        -0.74023
C          8.42290         7.76771        -1.02244
C          9.61270         5.58878        -1.55503
C          9.70961         8.57002        -1.35846
C          8.49865        10.67069        -0.71109
C          8.52263        12.10541        -0.47508
C          9.67433        10.00048        -1.05106
C          9.77756        12.81200        -0.65757
C          8.90174        14.94692         0.37930
C          8.71167        16.42415         0.06554
C          9.68719        14.30814        -0.77232
C          9.81947        17.14371        -0.39261
C          8.59245        19.23131        -0.13686
C          9.81438        18.57414        -0.44139
C         11.01101         1.99149        -1.10881
C         10.96570         3.41422        -1.33383
C         12.24020         1.28591        -1.07758
C         12.20544         4.10557        -1.69794
C         10.93776         6.36804        -1.71505
C         11.00971         7.84055        -1.42946
C         12.22991         5.60634        -1.77137
C         12.21362         8.49367        -1.43729
C         10.93861        10.72914        -1.21137
C         10.95684        12.14911        -0.83255
C         12.23501         9.98719        -1.41549
C         12.25702        12.83325        -0.51177
C         11.03669        14.98338        -0.86049
C         10.99966        16.47792        -1.06791
C         12.20022        14.30052        -0.86161
C         12.27298        17.19895        -0.73032
C         11.01664        19.28534        -0.70397
C         12.27985        18.60648        -0.72163
C         13.48177         1.96748        -0.96851
C         13.53486         3.38981        -1.38847
C         14.60591         1.34199        -0.47548
C         14.70443         4.20033        -1.04915
C         13.51084         6.31293        -1.53018
C         13.51851         7.79402        -1.85019
C         14.67671         5.62205        -1.26172
C         14.77005         8.52366        -1.38089
C         13.49996        10.71867        -1.17038
C         13.51040        12.09015        -0.94291
C         14.78057        10.02673        -1.58466
C         14.74467        12.80092        -0.87116
C         13.48091        15.04312        -0.92503
C         13.48139        16.43189        -0.31297
C         14.75122        14.27191        -0.86021
C         14.77653        17.17303        -0.52538
C         13.53220        19.29828        -0.65487
C         14.76851        18.59683        -0.62525
C         15.78394         2.12421         0.01762
C         15.85765         3.54988        -0.50282
C         17.10771         1.42552        -0.13996
C         17.03539         4.23885        -0.28306
C         16.00577         6.35015        -1.28511
C         15.92736         7.85238        -1.10100
C         17.02619         5.70865        -0.36858
C         17.20043         8.54448        -0.89014
C         16.01341        10.70453        -1.05286
C         15.99712        12.10698        -0.84715
C         17.22224         9.99719        -0.96449
C         17.22770        12.79774        -0.63994
C         15.94327        14.99254        -0.32936
C         15.98353        16.46953        -0.46684
C         17.22540        14.23383        -0.27246
C         17.23631        17.13968        -0.50139
C         16.03291        19.25806        -0.67068
C         17.23618        18.55786        -0.60892
C         18.27640         2.10672         0.10120
C         18.20123         3.58351         0.42344
C         19.53904         1.45379         0.10420
C         19.51884         4.32476         0.25579
C         18.28152         6.46254        -0.06920
C         18.36696         7.87014        -0.52997
C         19.52416         5.69782         0.16227
C         19.64908         8.52842        -0.51600
C         18.44683        10.70765        -0.88028
C         18.44543        12.10614        -0.76546
C         19.73199         9.94141        -1.06455
C         19.72798        12.90111        -0.88840
C         18.47730        15.00645        -0.30138
C         18.48375        16.38709        -0.38754
C         19.70090        14.17823        -0.03166
C         19.74435        17.11477        -0.30126
C         18.53647        19.32608        -0.72506
C         19.78033        18.53122        -0.38255
C         20.75183         2.14843         0.27177
C         20.76262         3.58843         0.33563
C         21.98286         1.43778         0.30658
C         22.00580         4.27460         0.35267
C         20.76706         6.48967         0.48087
C         20.80889         7.86456        -0.14848
C         22.04510         5.70160         0.31977
C         22.08908         8.53573        -0.13019
C         20.94818        10.69655        -0.58094
C         20.95881        12.09359        -0.55263
C         22.13448         9.97672        -0.29828
C         22.16809        12.80265        -0.33518
C         20.98614        14.95477        -0.12204
C         20.96451        16.40383        -0.08479
C         22.17797        14.25599        -0.18070
C         22.17256        17.09962         0.09629
C         20.98720        19.21170        -0.22709
C         22.20896        18.52213         0.03250
C         23.21595         2.09975         0.37197
C         23.24231         3.54195         0.37436
C         24.44765         1.38379         0.40684
C         24.47915         4.22151         0.40791
C         23.26356         6.38935         0.31085
C         23.25663         7.82510         0.16839
C         24.51355         5.65678         0.38247
C         24.51935         8.55601         0.35543
C         23.36127        10.68810        -0.19682
C         23.37729        12.09675        -0.27973
C         24.60036         9.97881        -0.02170
C         24.67204        12.83476        -0.48842
C         23.43776        14.92669         0.04973
C         23.38648        16.34053         0.56500
C         24.63741        14.25196         0.01609
C         24.68454        17.07578         0.38252
C         23.44693        19.20182         0.18696
C         24.68087        18.49741         0.32735
C         25.67754         2.04384         0.45141
C         25.71553         3.49024         0.46269
C         26.91195         1.32216         0.45413
C         26.95109         4.16165         0.50453
C         25.75385         6.31344         0.40516
C         25.80350         7.77577         0.48990
C         26.99654         5.60367         0.45236
C         27.07966         8.44388         0.22565
C         25.82372        10.63661        -0.03104
C         25.89198        12.06075        -0.07770
C         27.11007         9.87718        -0.20007
C         27.08458        12.73394         0.18924
C         25.88979        14.90730         0.31830
C         25.89737        16.35957         0.45594
C         27.07194        14.16502         0.36269
C         27.12111        17.07031         0.57527
C         25.92734        19.18127         0.40521
C         27.12479        18.48273         0.56318
C         28.13717         1.97473         0.47164
C         28.18887         3.42095         0.52212
C         29.38048         1.24528         0.44424
C         29.41841         4.08305         0.54599
C         28.22499         6.29826         0.46659
C         28.26667         7.72465         0.28361
C         29.49410         5.56807         0.82639
C         29.52940         8.44628         0.24131
C         28.33316        10.60336         0.28958
C         28.32303        11.98451         0.38718
C         29.55569         9.83855         0.36687
C         29.58051        12.70084         0.51804
C         28.34368        14.82843         0.70189
C         28.37832        16.32797         0.81011
C         29.59970        14.08313         0.50504
C         29.67079        17.03318         0.61017
C         28.40806        19.24152         0.83338
C         29.67420        18.44230         0.60142
C         30.57664         1.89835         0.40735
C         30.63880         3.33938         0.42651
C         31.84320         4.02076         0.24555
C         30.75431         6.21179         0.29637
C         30.81409         7.69610        -0.00439
C         31.86324         5.43819         0.08800
C         31.98263         8.39754         0.65215
C         30.80127        10.54914         0.61343
C         30.81663        11.94327         0.66360
C         31.98012         9.73117         0.86226
C         32.00607        12.72035         0.99368
C         30.89478        14.80535         0.22546
C         30.87195        16.31209         0.42974
C         32.03893        14.06734         0.87929
C         32.06503        17.02530         0.24602
C         30.88379        19.12846         0.42650
C         32.07366        18.42135         0.25615
O         11.51661        10.55462        -2.58849
O         14.25713        14.87544        -2.13510
O         25.10941         8.31837         1.69861
O         16.40750        14.48987         0.95861
O         11.55526         6.07770        -3.02734
O         28.33045        15.50809         2.03571
O         17.20464         6.30355         0.96928
O          8.78255         8.15332        -2.40274
O          4.18638         6.00733        -0.93131
O         13.01926         3.53447        -2.76176
O          8.11220         4.34763         1.49693
H          8.17966         3.44500         1.87637
O         13.34691        16.18415         1.13712
H         13.40484        17.05093         1.59228
O          6.33778        20.02592         1.69372
H          6.37382        19.37962         2.42862
O         19.83626        13.31208        -2.27648
H         19.78609        12.50311        -2.83026
O         23.21149        16.21146         2.03309
H         23.29285        17.11251         2.41248
O         16.54002         6.15047        -2.62914
H         15.88966         6.52071        -3.26486
O          6.67136         5.39156        -1.74414
H          7.36704         5.33345        -2.44448
O          6.60841         6.46794         1.77647
H          7.19290         5.70909         2.02204
O         14.85215        10.23182        -3.04067
H         14.20119         9.61057        -3.45403
O         28.43997        20.46268         0.08487
H         28.47980        20.23767        -0.86697
O         31.10714        14.65997        -1.23137
H         31.21196        13.70197        -1.41589
O         29.59309         5.68339         2.30448
H         28.79358         5.25796         2.68256
O         17.88876         3.69969         1.86276
H         17.65826         4.65282         2.00427
O          8.94760        14.58215        -1.99613
H          9.24715        13.94718        -2.68132
O          7.79861        13.73478         2.17296
H          8.55818        13.11319         2.19697
O          9.82928        14.88551         1.49659
H          9.39498        15.30717         2.26923
O         15.55899         2.24667         1.46961
H         16.35791         2.70761         1.84242
O         12.32913        12.80014         0.96021
H         11.72918        13.50025         1.30581
O         18.47971        20.53073         0.05221
H         18.39247        20.28192         0.99493
O         27.28202         9.82643        -1.68283
H         27.15025        10.74102        -2.01658
O         24.80369        12.94206        -1.96719
H         24.01359        13.42659        -2.29135
O         10.75068        16.68614        -2.50135
H          9.91424        16.20204        -2.70035
O         13.54002         7.89097        -3.31738
H         12.75787         7.36819        -3.63313
O         20.66293         6.75690         1.93148
H         20.68251         5.89084         2.39197
O          9.07904         5.42387        -2.90854
H          9.84092         5.50841        -3.53153
O         31.06316         7.77944        -1.45591
H         31.00135         8.72476        -1.70997
O          1.61593         5.61344        -0.56130
H          2.27800         5.55697        -1.28923
O         19.58144        13.70273         1.34206
H         19.46244        14.47888         1.92839
O         19.90337         9.81999        -2.52446
H         20.67121         9.23055        -2.68315
O          5.20205        14.09667         2.70361
H          6.11677        13.78097         2.90147
H          0.64089         1.38386         1.80127
H          0.49342         3.83013         1.44024
H          2.80717         0.18936         1.48540
H          0.73737         5.74034         2.21082
H          0.91328         8.12768         2.55914
H          0.65080        10.07760         2.14305
H          0.60027        12.52339         2.04958
H          0.41509        14.33632         1.19555
H          0.36348        16.78565         0.87868
H          1.55147        18.93874         0.61692
H          5.16316         0.22771         0.83242
H          3.69314        20.20068         0.44491
H          7.54084         0.25095         0.15754
H          6.04638        20.05816        -0.34266
H          9.84978         0.21712        -0.62737
H          8.54348        20.32947        -0.17491
H         12.21510         0.20693        -0.86174
H         10.99710        20.38532        -0.70717
H         14.55036         0.27754        -0.19884
H         13.53908        20.39789        -0.67222
H         17.13066         0.34087        -0.32768
H         16.06135        20.35496        -0.75040
H         19.56685         0.36342        -0.04353
H         18.63631        19.65823        -1.79738
H         21.96098         0.33833         0.27188
H         20.99378        20.30930        -0.29929
H         24.42357         0.28396         0.38997
H         23.46448        20.30051         0.13785
H         26.88226         0.22259         0.42341
H         25.94543        20.28082         0.38668
H         29.34387         0.14613         0.42837
H         28.39313        19.54469         1.91856
H         31.51912         1.33379         0.35385
H         32.77501         3.45238         0.11326
H         32.79782         5.90762        -0.25332
H         32.89126         7.81366         0.86226
H         32.88393        10.21378         1.26236
H         32.88684        12.19378         1.38953
H         32.94740        14.61968         1.16151
H         33.00353        16.48092         0.07106
H         30.88076        20.22745         0.42061
H         33.01892        18.96341         0.11384
