         276
 CSIRO Nanostructure Databank - Neutral Graphene Oxide Data Set
C        -11.28746         0.61946         0.36302
C        -10.17689         1.53451         0.11317
C         -8.96423         0.94279        -0.50689
C         -7.67047         1.56283        -0.04751
C         -6.43570         0.71233        -0.06325
C         -5.12599         1.43567        -0.31040
C         -3.89450         0.66226        -0.66229
C         -2.58598         1.39082        -0.91834
C         -1.29992         0.65085        -1.16015
C          0.01100         1.41607        -1.29343
C          1.29957         0.71360        -1.62963
C          2.49252         1.53713        -1.20949
C          3.71192         0.89527        -0.64572
C          5.01056         1.66702        -0.57494
C          6.20189         1.03351         0.08953
C          7.57819         1.56494        -0.25702
C          8.78228         0.98843         0.45497
C         10.14325         1.66432         0.23331
C         11.23752         0.65991        -0.02772
C        -10.16172         2.87540         0.34041
C         -9.03056         3.77652        -0.14768
C         -7.65101         3.08166        -0.03623
C         -6.36758         3.75197        -0.39436
C         -5.22555         2.85000        -0.92682
C         -3.90895         3.64298        -1.01421
C         -2.60153         2.87291        -1.18208
C         -1.30292         3.63109        -1.26549
C          0.01097         2.90415        -1.20613
C          1.22045         3.69938        -1.63922
C          2.51962         2.96563        -1.67759
C          3.84006         3.70190        -1.66380
C          5.11418         2.93457        -1.39473
C          6.42571         3.67745        -1.27883
C          7.67165         2.87786        -0.97538
C          8.97796         3.69397        -1.00569
C         10.15008         2.82963        -0.69098
C         -9.05293         5.11331         0.59556
C         -8.20510         6.11416         0.44106
C         -6.29769         5.15355        -0.98353
C         -5.09554         6.03612        -0.56797
C         -3.85244         5.13279        -0.75804
C         -2.51332         5.76744        -0.44350
C         -1.23491         5.06334        -0.78760
C          0.09785         5.52586        -0.21875
C          1.31636         5.03069        -0.93740
C          2.45541         5.95977        -1.34108
C          3.82293         5.22345        -1.52550
C          5.10752         5.93089        -1.17620
C          6.41994         5.16897        -1.09304
C          7.59584         5.80324        -0.42654
C          8.76749         4.90808        -0.02439
C         -7.56260         7.26664         0.31866
C         -6.34764         7.66304         1.13827
C         -5.10022         6.81893         0.74204
C         -3.77255         7.36293         1.16708
C         -2.47503         6.79098         0.65213
C         -1.16245         7.41790         1.02005
C          0.18936         6.80135         0.64872
C          1.29047         7.77151         0.25853
C          2.49047         7.27764        -0.49195
C          3.81607         7.74953         0.13739
C          5.07361         7.33602        -0.62998
C          6.36240         7.97472        -0.21597
C          7.57030         7.11721        -0.09372
C         -5.98526         9.13431         0.98867
C         -4.79697         9.60583         1.39144
C         -3.71235         8.69014         1.94338
C         -2.35082         9.37903         1.88875
C         -1.17846         8.82695         1.50332
C          0.09940         9.68946         1.39770
C          1.44029         8.91399         1.27543
C          2.62716         9.79321         0.91998
C          3.79656         9.22792         0.51211
C          5.08738         9.86614         0.74493
C          6.27267         9.23762         0.56054
C        -11.16761        -0.73721         0.36906
C         -9.91580        -1.49853         0.41338
C         -8.79780        -0.96297         1.24391
C         -7.35536        -1.51776         1.06267
C         -6.47392        -0.82309        -0.10138
C         -5.21841        -1.52390        -0.57951
C         -4.01413        -0.75591        -1.22130
C         -2.65914        -1.55297        -1.25628
C         -1.32330        -0.80919        -1.49230
C          0.00611        -1.53675        -1.52977
C          1.34410        -0.77808        -1.54362
C          2.61371        -1.42452        -1.00052
C          3.79715        -0.60705        -0.57230
C          4.70193        -1.06787         0.56953
C          6.09316        -0.39349         0.61532
C          7.34748        -1.15183         0.97187
C          8.70365        -0.44657         0.90088
C          9.95538        -1.32631         0.92683
C         11.15562        -0.63302         0.30390
C         -9.80415        -2.76421        -0.10629
C         -8.63252        -3.58670         0.08368
C         -7.45719        -3.06071         0.88085
C         -6.14605        -3.65969         0.47305
C         -4.98874        -2.92075        -0.06906
C         -3.84477        -3.75830        -0.52912
C         -2.59023        -3.00902        -0.89044
C         -1.26280        -3.65183        -0.58010
C          0.02581        -2.81969        -0.70713
C          1.27977        -3.68069        -0.81470
C          2.54976        -2.89799        -0.65795
C          3.59568        -3.46707         0.24397
C          4.72435        -2.61856         0.77297
C          5.99813        -3.37210         1.08644
C          7.31629        -2.66238         1.07242
C          8.52161        -3.43724         0.67759
C          9.69354        -2.63750         0.15609
C         -8.63735        -4.92249        -0.24663
C         -7.50510        -5.79752         0.00104
C         -6.32084        -5.14178         0.68230
C         -4.99797        -5.93743         0.59929
C         -3.83764        -5.19681        -0.12789
C         -2.51091        -5.91103        -0.07381
C         -1.26894        -5.15571        -0.47978
C         -0.06735        -5.98225        -0.89072
C          1.24214        -5.21445        -0.65061
C          2.32120        -5.81915         0.20863
C          3.49369        -4.94797         0.58259
C          4.75007        -5.56429         1.12557
C          5.99540        -4.84458         0.60316
C          7.28623        -5.56937         0.94264
C          8.50385        -4.79769         0.67856
C         -7.60000        -7.15992        -0.10820
C         -6.40076        -8.05050        -0.37107
C         -5.08982        -7.28991        -0.14558
C         -3.82140        -8.06494        -0.07071
C         -2.49089        -7.38549         0.09740
C         -1.41259        -8.24361        -0.56075
C         -0.32791        -7.43710        -1.16378
C          1.83364        -8.33368        -0.32680
C          2.20005        -7.27666         0.70929
C          3.50165        -7.83830         1.37945
C          4.76451        -7.00373         1.49870
C          6.10938        -7.71963         1.71794
C          7.30378        -6.88999         1.25891
C         -6.27740        -9.48275         0.14125
C         -5.11976       -10.18111         0.15440
C         -3.73993        -9.54788         0.23190
C         -2.47307       -10.06558        -0.54527
C         -1.16087        -9.59723         0.08637
C          0.02755       -10.23020         0.27497
C          1.36143        -9.61333         0.34627
C          2.39558       -10.15410         1.04557
C          3.62147        -9.34004         1.36138
C          4.98368        -9.89344         1.14521
C          6.09449        -9.13685         1.18542
O          3.31620        -8.59770         2.60221
O          4.64143        -5.93585         2.51839
O         -7.57699        -3.74261         2.20658
O          6.54691        -0.50947         1.99982
O         -5.10382        -3.11267         1.36888
O         -2.20638        -6.57060         1.22746
O         -4.29234        -7.51197        -1.35284
O         -1.78628         6.39180         1.88892
O          8.67380         0.65650         1.86111
O          7.76557         1.61938        -1.71127
O         -7.06885         1.10407         1.19456
O          2.25231        -8.29286        -1.47669
O         -4.18721        -4.80213        -1.49075
O          1.02513         4.59852         0.42411
O          2.20872        -3.53467        -1.92812
O          4.61346         3.05122        -2.74034
O          4.58997         5.90430        -2.54787
O         -6.81189        -5.04657         2.09934
O          0.24171         2.13140        -0.01962
O         -4.20967         1.01714         0.72647
O          1.55870         8.24241        -1.08324
O          3.89504         7.07983         1.38798
O          2.70752         1.46292         0.23616
O          2.33530        -5.05123         1.46376
O          3.57233        -2.88799         1.60236
O         -6.74122         3.60762         0.98655
O          3.81794        -1.25647        -1.85273
O         -1.76131         0.91158         0.19679
O          6.67334        -3.11743         2.32620
O         -2.01100         3.26096        -2.47211
O         -3.97924         4.60951        -2.11161
O          0.82800        -5.60644        -1.99169
O         -0.73291        -1.30161        -2.73328
O         -9.02395        -0.20571         2.17482
O         -1.77008         6.10991        -1.65282
O         -1.09011        -4.29424         0.71315
O         -2.17750        -9.04545        -1.59043
O         -4.44298         6.24115         1.87849
O         -2.72861        -2.59520        -2.28049
O          5.37760         1.98229         0.81693
O         -8.97617         0.06288        -1.35349
O         -6.44205        -1.45978        -1.38889
O         -6.92578         5.41990        -2.00125
O          6.69178         4.56704        -2.40312
O          5.84204        -4.78815        -0.79085
O          1.78558         3.32449        -2.90455
O          5.75727         8.21526        -1.55761
O          1.47846        -0.06938        -2.81958
O          1.78270         8.43383         2.58818
H          2.56488         7.82419         2.45781
O         -4.32912        -0.51540        -2.59815
H         -4.24810        -1.36359        -3.08826
O         -5.59795         2.53728        -2.28672
H         -5.31465         3.28217        -2.86543
O          2.06061         6.33777        -2.66956
H          2.86140         6.66413        -3.14041
O          6.28391        -7.86732         3.15049
H          5.91078        -7.05552         3.56496
O         -6.58880        -8.27745        -1.80297
H         -5.70126        -8.18830        -2.22905
O          0.18620        10.56146         2.51805
H          0.65667        10.05683         3.21955
O         -6.67436        -1.25843         2.27652
H         -7.14774        -0.51659         2.72427
O         -9.29184         3.99609        -1.54955
H         -8.60968         4.61890        -1.90490
O         -4.04168         8.41234         3.32565
H         -3.45486         7.68368         3.62343
O         -4.61186        -6.27547         1.93282
H         -4.89958        -5.54966         2.53271
O         -6.64050         7.41761         2.51519
H         -5.81780         7.61010         3.02984
O          1.12652        -7.28574         1.65447
H          1.37998        -6.69682         2.40079
O         -4.97534         7.06821        -1.55948
H         -5.00371         6.64081        -2.44407
O         10.50577         2.36609         1.47711
H          9.74594         2.95536         1.71590
O          0.02263        -7.86555        -2.35655
H          0.67898        -7.23551        -2.75503
O          0.16231        -2.18196         0.60318
H          0.10186        -2.86783         1.30827
O          9.25817         4.22513        -2.30615
H          8.39839         4.47968        -2.73090
O          4.01177        -0.52435         1.70480
H          4.60373        -0.60111         2.48613
O         10.25900        -1.66585         2.28687
H         10.11698        -0.86224         2.83260
O          9.38339        -2.24132        -1.19035
H          9.12504        -3.03624        -1.70218
O          0.69402         6.35134         1.92784
H          0.02909         5.74674         2.32383
O          8.48292         4.32486         1.25777
H          8.22113         5.03036         1.88627
O         -3.35369        -9.65203         1.62691
H         -4.00980        -9.17551         2.17868
H         12.02991        -1.27918         0.12597
H         12.17318         1.05360        -0.45488
H         11.12418         3.16111        -1.08420
H          9.70798         5.51975         0.03525
H          8.44349         7.55496         0.41884
H          7.21138         9.72096         0.87122
H          5.07195        10.85523         1.22902
H          2.62224        10.83246         1.28791
H         -0.02066        10.32422         0.47667
H         -2.33833        10.42494         2.23623
H         -4.58317        10.68455         1.33686
H         -6.75410         9.82901         0.61599
H         -7.89371         7.96561        -0.47174
H         -9.88031         5.25642         1.31531
H        -11.04190         3.36618         0.78645
H        -12.29307         1.06031         0.44578
H        -12.09432        -1.33416         0.39000
H        -10.64966        -3.20478        -0.65749
H         -9.52266        -5.35475        -0.73731
H         -8.56236        -7.57750        -0.44655
H         -7.21947       -10.04857         0.22397
H         -5.16360       -11.26074         0.37264
H         -2.53512       -11.09923        -0.95236
H         -0.00356       -11.30592         0.51875
H          2.27853       -11.11304         1.57795
H          5.04863       -10.94468         0.82526
H          7.06754        -9.59981         0.96105
H          8.28129        -7.37684         1.41518
H          9.43063        -5.34898         0.44817
H         10.62372        -3.27072         0.16491
