         244
 CSIRO Nanostructure Databank - Neutral Graphene Oxide Data Set
C          1.21965         2.11432        -0.64801
C          1.16269         3.47919        -0.37147
C          2.44299         1.44650        -0.66621
C          2.33624         4.21527        -0.07639
C          1.12660         6.38621         0.08535
C          1.12508         7.78162         0.24559
C          2.29214         5.63612         0.18857
C          2.32124         8.52479         0.34964
C          1.11646        10.72244         0.27397
C          1.13237        12.10019         0.15974
C          2.31748         9.97349         0.28254
C          2.35155        12.80904         0.02269
C          1.19293        14.99543        -0.43740
C          1.22015        16.37823        -0.57423
C          2.36350        14.27141        -0.13229
C          2.40340        17.10526        -0.31902
C          2.47473        18.52448        -0.61298
C          3.63932         2.14087        -0.38016
C          3.58567         3.52897        -0.05951
C          4.90258         1.46729        -0.49764
C          4.81503         4.24721         0.22838
C          3.51637         6.33682         0.72561
C          3.56412         7.82501         0.40431
C          4.80581         5.58785         0.48653
C          4.78103         8.52372         0.35778
C          3.55359        10.67555         0.21208
C          3.55905        12.09374         0.07411
C          4.79431         9.94470         0.26072
C          4.85003        12.82293        -0.21986
C          3.57416        14.98494         0.07152
C          3.56525        16.40032         0.07480
C          4.83194        14.27250         0.20738
C          4.76994        17.15409         0.47482
C          3.63044        19.22389        -0.50499
C          4.81563        18.62612         0.13300
C          6.10982         2.09859        -0.24174
C          6.08946         3.44748         0.44907
C          7.34495         1.43729        -0.47385
C          7.33217         4.26204         0.21263
C          6.06536         6.34206         0.84594
C          6.06384         7.72741         0.16979
C          7.34283         5.61487         0.46476
C          7.31936         8.48301         0.56256
C          6.02586        10.69161         0.30378
C          6.07838        12.07427         0.22253
C          7.28865         9.96516         0.56120
C          7.30758        12.81785         0.42910
C          6.01888        14.93225         0.44299
C          6.09008        16.42001         0.73793
C          7.26467        14.21475         0.50540
C          7.24622        17.01786        -0.10701
C          6.13690        19.26614        -0.03367
C          7.29621        18.53405        -0.08793
C          8.57761         2.10842        -0.42164
C          8.55150         3.58086        -0.27137
C          9.81655         1.45966        -0.56706
C          9.85889         4.29645        -0.13869
C          8.57530         6.36222         0.42012
C          8.61427         7.76022         0.39269
C          9.85315         5.60046         0.61755
C          9.83781         8.46559         0.29371
C          8.53848        10.68314         0.18745
C          8.58312        12.13291         0.42722
C          9.82093         9.92358         0.08200
C          9.81367        12.77542         0.46491
C          8.51026        14.97690         0.72403
C          8.55699        16.38232         0.30688
C          9.85079        14.21716         0.73456
C          9.76731        17.03858         0.17422
C          8.56402        19.15571        -0.30640
C          9.76617        18.44773        -0.24605
C         11.07258         2.11323        -0.40337
C         11.11903         3.52912        -0.08515
C         12.28574         1.41984        -0.55212
C         12.28903         4.18653         0.23935
C         11.11544         6.37174         0.35533
C         11.10245         7.78156         0.24307
C         12.32707         5.65334         0.32764
C         12.33256         8.47838         0.04049
C         11.07571        10.68616         0.15550
C         11.07130        12.06962         0.25850
C         12.30443         9.94385        -0.15783
C         12.33862        12.80053         0.33584
C         11.09540        14.96627         0.48256
C         11.02866        16.35144         0.32934
C         12.33564        14.24428         0.45295
C         12.29113        17.17029         0.37580
C         10.98279        19.05548        -0.63271
C         12.21990        18.41191        -0.47602
C         13.53411         2.04552        -0.29704
C         13.53628         3.40475         0.28844
C         14.75144         1.40317        -0.51726
C         14.86776         4.15913         0.39988
C         13.54529         6.36950         0.28490
C         13.56591         7.78409         0.12456
C         14.84240         5.67696         0.65111
C         14.84450         8.50922         0.09095
C         13.61118        10.72837        -0.19766
C         13.55404        12.11292         0.26447
C         14.93478         9.97721        -0.28649
C         14.80542        12.78334         0.76848
C         13.57733        14.95741         0.36303
C         13.56767        16.38739         0.16651
C         14.80333        14.24549         0.39779
C         14.75377        17.08660        -0.05949
C         13.39439        18.95225        -0.98555
C         14.69052        18.40927        -0.72380
C         15.99923         2.10649        -0.46960
C         16.02734         3.49168        -0.19139
C         17.22083         1.43540        -0.79015
C         17.28621         4.25345        -0.52367
C         16.00053         6.34669        -0.08596
C         16.04918         7.84292         0.13364
C         17.29724         5.58359         0.23652
C         17.32533         8.54783         0.10698
C         16.13932        10.68936         0.30365
C         16.11623        12.05737         0.49047
C         17.37368         9.93343         0.29391
C         17.35569        12.81369         0.67230
C         16.03762        14.93042         0.36585
C         16.00037        16.37547         0.16559
C         17.26341        14.24319         0.60322
C         17.20027        17.05838         0.24154
C         15.75567        19.08433        -1.33981
C         17.13089        18.85520        -0.98987
C         18.47755         2.06867        -0.60116
C         18.51189         3.42971        -0.25086
C         19.71874         1.38035        -0.90938
C         19.76330         4.09624         0.08496
C         18.54652         6.37976         0.02519
C         18.55567         7.75469         0.00998
C         19.83901         5.61437         0.29307
C         19.84826         8.43979         0.17347
C         18.69880        10.68665         0.28856
C         18.60566        12.14491         0.80328
C         19.87112         9.77001         0.67090
C         19.81988        12.95507         0.90339
C         18.50767        15.06645         0.85063
C         18.47150        16.41125         0.18413
C         19.79609        14.34890         0.62049
C         19.57989        17.05721        -0.31332
C         18.26823        18.84060        -1.73631
C         19.58730        18.23291        -1.29801
C         20.91833         2.01603        -0.87338
C         21.04818         3.34903        -0.26580
C         22.26436         4.16495        -0.52011
C         20.93720         6.29194        -0.54671
C         21.04402         7.68589         0.04863
C         22.22928         5.50337        -0.60488
C         22.24321         8.16500         0.57720
C         21.07401        10.14802         1.29351
C         21.08651        12.47485         1.31877
C         22.23468         9.36543         1.28013
C         22.26806        13.21295         1.18881
C         20.97614        15.11069         0.44448
C         20.89165        16.51109         0.00614
C         22.22799        14.49869         0.66012
C         21.96557        17.37737         0.00096
C         20.63776        19.23766        -0.86553
C         21.78871        18.77589        -0.31976
O          4.51260        18.15604         1.51800
O         12.85008        10.46240        -1.43401
O         17.24538        18.44264         0.36235
O         21.17727        11.30593         2.06251
O          9.19396        14.63916         1.97385
O         20.55003         3.38861         1.11742
O          9.18289         4.29264        -1.42122
O         14.28586         3.45428         1.55439
O          7.28984         9.22057         1.83286
O          9.02105        10.28865        -1.14399
O         14.70150        12.76181         2.24444
H         15.45693        13.28170         2.59543
O          6.07512         6.54208         2.28559
H          6.27512         5.67316         2.69729
O          3.34950         6.31046         2.19745
H          4.20936         6.62998         2.57230
O         18.96029        10.92850        -1.15106
H         18.10288        11.15875        -1.57124
O         14.96628         5.90993         2.07199
H         14.62655         5.09745         2.51663
O          6.08791         3.14954         1.89465
H          5.31273         2.57414         2.07057
O         15.29492         9.95411        -1.71294
H         14.44220         9.86820        -2.20466
O         17.33422         5.18486         1.62655
H         17.44737         5.98500         2.18108
O          6.43208        16.56909         2.12527
H          5.90164        17.32693         2.46980
O          6.97334        16.62947        -1.48660
H          7.68026        17.00674        -2.05144
O         12.37557        17.66061         1.76439
H         12.27103        16.88595         2.35709
O         20.14502         5.84475         1.68762
H         20.45257         4.98299         2.05826
O         15.65824         6.20684        -1.48536
H         16.38122         6.59192        -2.02426
O         17.36723         4.51152        -1.96420
H         17.29433         3.64538        -2.41851
O          9.87942         5.21065         2.03772
H          9.87070         6.03226         2.57319
O          4.94172        12.86080        -1.69877
H          4.19067        13.40505        -2.01950
O         18.48998        15.32464         2.31153
H         19.30551        15.82575         2.52818
O          6.16424         7.45163        -1.25171
H          6.24389         8.30133        -1.73397
O         20.10956        17.63782        -2.53467
H         21.00246        17.28237        -2.33644
O         20.44484         6.37931        -1.90853
H         21.02870         6.98653        -2.40809
H          0.29312         1.56494        -0.86568
H          0.18433         3.97757        -0.37153
H          2.48683         0.37573        -0.91096
H          0.17349         5.90219        -0.17070
H          0.16190         8.30344         0.16891
H          0.14725        10.21474         0.36642
H          0.17880        12.64488         0.17198
H          0.24899        14.46358        -0.61813
H          0.31114        16.91724        -0.87720
H          1.57967        19.00135        -1.03996
H          4.90544         0.43971        -0.89311
H          3.69453        20.26197        -0.86353
H          7.32646         0.36868        -0.74028
H          6.17769        20.36270        -0.12937
H          9.82105         0.37414        -0.75099
H          8.59016        20.23549        -0.51931
H         12.27415         0.37062        -0.88353
H         10.95351        20.05739        -1.08817
H         14.75460         0.35337        -0.84714
H         13.33381        19.87526        -1.58303
H         17.18941         0.37356        -1.07464
H         15.51075        19.86122        -2.08118
H         19.65040         0.35871        -1.31234
H         18.22106        19.13948        -2.79312
H         21.82116         1.53142        -1.27411
H         23.21427         3.62638        -0.66915
H         23.15793         6.04259        -0.85206
H         23.16562         7.57238         0.51824
H         23.13269         9.72959         1.79470
H         23.21761        12.76516         1.50891
H         23.16071        15.05641         0.50447
H         22.95556        17.04791         0.34518
H         20.51372        20.30162        -1.11202
H         22.61289        19.46670        -0.08826
