         430
 CSIRO Nanostructure Databank - Neutral Graphene Oxide Data Set
C         27.89855        27.33391         0.99651
C         27.89755        28.75025         1.08940
C         26.68714        29.45660         1.35407
C         27.88197        31.58458         1.32256
C         26.68257        30.82187         1.47721
C         27.88484        33.01684         1.44450
C         26.67680        33.72694         1.70246
C         27.87862        35.83842         1.76501
C         26.66966        35.09068         1.84311
C         27.88014        37.26158         1.92190
C         26.68361        38.05998         1.78934
C         27.81970        39.83404         0.45421
C         26.65662        39.22569         1.06638
C         28.05940        41.51540        -1.29520
C         27.14675        42.05002        -2.23875
C         28.45877        44.06290        -2.36555
C         27.33197        43.30865        -2.76163
C         28.59089        45.40503        -2.84041
C         30.30899        27.33163         0.64910
C         29.07230        26.64612         0.77671
C         30.33139        28.75021         0.71960
C         29.11263        29.47122         0.93132
C         30.29018        31.66091         0.81731
C         29.09651        30.90712         1.03233
C         30.31783        33.05517         0.99155
C         29.10262        33.74855         1.31558
C         30.34140        35.91222         1.36260
C         29.10418        35.17000         1.48688
C         30.35049        37.32600         1.58235
C         29.13801        37.89817         1.96964
C         30.35473        40.22283         0.46491
C         29.07484        39.78643         0.99942
C         30.31714        41.64288        -0.02739
C         29.25401        42.17989        -0.94480
C         30.61625        44.28901        -1.22538
C         29.44479        43.49338        -1.50325
C         30.69714        45.65074        -1.65424
C         29.64430        46.18810        -2.46440
C         32.81434        24.59704        -0.18522
C         31.61170        25.24563         0.21869
C         32.80969        27.35811         0.58295
C         31.55126        26.60598         0.46287
C         32.79655        28.82641         0.45959
C         31.56370        29.47436         0.52644
C         32.80652        31.70370         0.32920
C         31.49718        30.93772         0.37557
C         32.77664        33.13058         0.66480
C         31.56962        33.80153         0.90073
C         32.81468        35.96603         1.29265
C         31.54744        35.22138         1.11768
C         32.84906        37.44196         1.23798
C         31.59498        38.22424         1.58711
C         32.81670        40.24155         0.64245
C         31.52656        39.56319         0.80197
C         32.85170        41.63850         0.38978
C         31.60602        42.39336         0.09497
C         32.88730        44.46506        -0.31666
C         31.73018        43.72580        -0.53969
C         32.94674        45.85626        -0.64816
C         31.81373        46.45399        -1.28016
C         32.84648        48.66946        -1.09628
C         31.82895        47.88231        -1.50970
C         35.28150        23.20487        -0.99846
C         35.19922        24.70444        -1.04919
C         34.01471        25.25859        -0.27958
C         35.31715        27.43085        -0.04383
C         34.11627        26.62227         0.23245
C         35.29348        28.82347         0.19804
C         34.05063        29.53847         0.36322
C         35.30143        31.66292         0.54601
C         34.07753        30.95428         0.42155
C         35.32041        33.10155         0.61879
C         34.04302        33.88122         0.36697
C         35.33418        35.99397         0.84145
C         34.09067        35.22994         1.03670
C         35.30751        37.39678         0.87837
C         34.04044        38.10718         1.00084
C         35.29128        40.25163         0.74113
C         34.04930        39.55435         0.82282
C         35.30263        41.67232         0.59990
C         34.06737        42.34222         0.41957
C         35.31564        44.58669         0.47515
C         34.03094        43.82226         0.36309
C         35.34645        46.00035         0.01396
C         34.11290        46.62134        -0.37293
C         35.35613        48.72223        -0.83842
C         34.04626        48.12817        -0.37594
C         35.43867        49.74888        -1.73049
C         37.73268        23.24259        -1.04447
C         36.46061        22.54991        -1.03451
C         37.73222        24.66220        -0.83998
C         36.51484        25.36492        -0.68363
C         37.77126        27.45523        -0.24485
C         36.52545        26.74710        -0.35168
C         37.76833        28.84415         0.06519
C         36.53292        29.54561         0.22852
C         37.78557        31.63069         0.63870
C         36.54278        30.94120         0.49964
C         37.77997        33.07048         1.10155
C         36.50690        33.80825         0.76174
C         37.77513        35.96220         0.73278
C         36.53850        35.25374         0.76031
C         37.77083        37.38387         0.72937
C         36.54142        38.11175         0.79548
C         37.78245        40.24795         0.76198
C         36.54547        39.54044         0.78309
C         37.78569        41.70252         0.73391
C         36.55344        42.40464         0.61305
C         37.79575        44.52805         0.52468
C         36.58549        43.82768         0.53997
C         37.79662        46.04132         0.58885
C         36.55015        46.67857         0.01898
C         37.87981        48.66042        -0.78518
C         36.59194        48.18406        -0.16514
C         37.88524        49.85024        -1.56932
C         36.69122        50.35872        -2.05145
C         40.17250        20.45325        -1.58165
C         38.98903        21.11996        -1.40363
C         40.19723        23.25997        -1.20836
C         38.95186        22.53938        -1.20717
C         40.20487        24.67618        -0.93922
C         38.98986        25.36237        -0.73322
C         40.23519        27.45299        -0.22701
C         38.99802        26.76404        -0.42754
C         40.22640        28.81326         0.14454
C         39.00952        29.53100         0.23806
C         40.25653        31.67020         0.57191
C         38.99614        30.94449         0.51826
C         40.24611        33.10808         0.61014
C         39.03179        33.82550         0.72859
C         40.24413        35.96737         0.52963
C         39.01830        35.23540         0.67350
C         40.22419        37.38873         0.48427
C         39.01268        38.10020         0.62402
C         40.26875        40.24766         0.74413
C         39.01170        39.53871         0.68764
C         40.25421        41.68823         1.21197
C         39.00451        42.42066         0.78730
C         40.28927        44.54968         0.59285
C         39.02809        43.82726         0.64482
C         40.28337        45.93526         0.20604
C         39.07569        46.64270         0.03765
C         40.33822        48.63826        -0.74105
C         39.07394        47.96003        -0.51385
C         40.38555        49.92406        -1.28410
C         39.19613        50.44382        -2.05059
C         40.33621        52.66553        -2.07285
C         39.19336        51.95086        -2.14835
C         42.64398        20.47615        -1.77005
C         41.41287        21.16239        -1.61486
C         42.67017        23.34113        -1.70225
C         41.40281        22.57195        -1.44102
C         42.68840        24.70349        -1.06675
C         41.46153        25.37860        -0.81435
C         42.72922        27.42662        -0.30200
C         41.47963        26.73924        -0.41609
C         42.75369        28.82189         0.04619
C         41.50237        29.46457         0.61711
C         42.69640        31.68361         0.52358
C         41.47130        30.97452         0.49943
C         42.71366        33.09341         0.52435
C         41.48263        33.82675         0.53495
C         42.72969        35.96277         0.45673
C         41.47915        35.24717         0.49412
C         42.74433        37.41503         0.41110
C         41.47017        38.15131         0.10062
C         42.73164        40.27072         0.77775
C         41.47162        39.58384         0.58855
C         42.74101        41.71919         0.91960
C         41.53645        42.43245         0.92820
C         42.78002        44.54526         0.65027
C         41.52019        43.85218         0.76060
C         42.80504        45.96517         0.29936
C         41.53727        46.63499         0.01257
C         42.80859        48.77749        -0.16024
C         41.54214        47.97883        -0.33187
C         42.81304        50.12913        -0.81786
C         41.60836        50.69188        -1.28882
C         42.81049        52.76671        -1.73746
C         41.60411        52.04529        -1.72985
C         43.86538        21.14763        -1.66377
C         45.16061        23.24455        -1.29599
C         43.93091        22.53650        -1.49279
C         45.15418        24.61790        -1.03546
C         43.92236        25.34917        -0.87292
C         45.20573        27.44753        -0.45470
C         43.94975        26.73838        -0.51808
C         45.20498        28.85919        -0.24541
C         43.95085        29.51213         0.05152
C         45.24424        31.69062         0.37245
C         43.96359        30.92663         0.49322
C         45.18894        33.15564         0.32796
C         43.96213        33.82043         0.46461
C         45.19216        36.00324         0.18796
C         43.92500        35.24788         0.47128
C         45.19242        37.36568         0.87482
C         43.91476        38.12639         0.59757
C         45.21220        40.23723         1.17794
C         43.92837        39.55404         0.75294
C         45.23709        41.72150         0.93132
C         43.99908        42.42301         0.88405
C         45.29594        44.52911         0.45041
C         43.98021        43.83927         0.74191
C         45.24135        46.03383         0.76224
C         43.99832        46.63901         0.16752
C         45.28289        48.80071        -0.27326
C         44.04744        47.97507        -0.53593
C         45.27025        50.15814        -0.45536
C         44.02593        50.84674        -0.85166
C         44.00547        52.17406        -1.33390
C         47.60883        23.22649        -1.46846
C         46.44986        22.55235        -1.34785
C         47.59540        24.73688        -1.57240
C         46.47198        25.27191        -0.68412
C         47.65769        27.48013        -0.65016
C         46.43609        26.77929        -0.65837
C         47.66211        28.89311        -0.44157
C         46.43533        29.56578        -0.27003
C         47.71731        31.73942         0.03892
C         46.41887        31.06865        -0.34155
C         47.71323        33.10270         0.31325
C         46.45313        33.85641         0.33742
C         47.69652        35.93938         0.91331
C         46.45637        35.22469         0.46178
C         47.73503        37.37580         0.45567
C         46.43466        38.13241         0.46421
C         47.69238        40.23581         0.68955
C         46.47801        39.56823         0.70863
C         47.70972        41.68104         0.78635
C         46.48705        42.38210         0.88115
C         47.75918        44.59047         0.71900
C         46.49960        43.87219         1.15079
C         47.74559        45.97981         0.48094
C         46.53634        46.69190         0.38651
C         47.71705        48.85025         0.45321
C         46.59588        48.06476        -0.23087
C         47.68440        50.30186         0.03766
C         46.53219        50.89304        -0.33731
C         50.13560        24.78011        -1.51437
C         48.91486        25.42184        -1.26403
C         50.14820        27.49448        -0.78185
C         48.91545        26.78419        -0.88609
C         50.15243        28.90634        -0.49113
C         48.92422        29.61110        -0.35640
C         50.18565        31.69829         0.08844
C         48.94256        31.00867        -0.07645
C         50.19806        33.10197         0.35326
C         48.96274        33.81381         0.45126
C         50.19804        35.93291         0.68389
C         48.98122        35.21129         0.61936
C         50.20046        37.38044         0.72913
C         48.98776        38.11077         0.64470
C         50.18468        40.22957         0.72567
C         48.95442        39.51574         0.63629
C         50.16788        41.67787         0.64161
C         48.95966        42.36852         0.63611
C         50.23417        44.52957         0.21584
C         48.91212        43.80268         0.16998
C         50.23665        45.96638         0.16858
C         49.01502        46.69650         0.25180
C         50.25868        48.78180         0.12868
C         49.02686        48.10468         0.23852
C         51.34377        25.44764        -1.35519
C         52.64113        27.51824        -0.85942
C         51.38134        26.80984        -0.99485
C         52.63887        28.89891        -0.53538
C         51.39553        29.60003        -0.36337
C         52.65554        31.69220         0.11419
C         51.41386        30.99155        -0.06299
C         52.64846        33.05562         0.46980
C         51.43267        33.79699         0.54014
C         52.65640        35.97155         0.81219
C         51.43691        35.22718         0.70358
C         52.67369        37.37490         0.79765
C         51.42565        38.09974         0.77163
C         52.66210        40.28946         1.03035
C         51.39709        39.51744         0.78443
C         52.60966        41.66732         0.41992
C         51.42904        42.36624         0.39101
C         52.69249        44.50164         0.02685
C         51.42259        43.81242         0.17791
C         52.70959        45.93478        -0.02738
C         51.48152        46.66809         0.06442
C         51.45187        48.08734         0.03542
C         55.08119        27.52531        -0.92291
C         53.88461        26.85362        -1.04468
C         55.10642        28.90660        -0.59824
C         53.87956        29.60284        -0.39470
C         55.15240        31.66531         0.08227
C         53.90524        30.98920        -0.05126
C         55.18681        33.05222         0.48011
C         53.91889        33.70898         0.81812
C         55.19819        35.95849         0.82122
C         53.92558        35.24834         0.99867
C         55.17921        37.39890         0.75658
C         53.93181        38.10458         0.78296
C         55.14689        40.24576         0.69720
C         53.92894        39.51725         0.74386
C         55.10754        41.67722         0.58264
C         53.88321        42.26924        -0.09087
C         55.18923        44.41863        -0.44801
C         53.87409        43.77013        -0.12641
C         55.14048        45.90954        -0.35288
C         53.98245        46.59317        -0.16088
C         56.33878        29.60638        -0.47667
C         56.35813        30.94229        -0.15259
C         56.36245        33.80000         0.58152
C         56.36822        35.19745         0.74650
C         56.38537        38.15118         0.73407
C         56.37568        39.52938         0.71817
C         56.16519        42.53896         0.91494
C         56.18879        43.86619         0.52650
O         32.04230        31.40753        -0.91446
O         29.14435        39.26627         2.32204
O         53.90591        34.33608         2.14366
O         34.43269        44.43428         1.64564
O         44.86075        31.12107         1.66434
O         47.06759        37.70125        -0.79035
O         27.59997        40.28848        -0.84358
O         33.68550        26.81894         1.62496
O         33.60215        35.32039         2.40369
O         30.58854        42.47391         1.17026
O         45.50386        44.37747        -0.97558
H         46.46737        44.26772        -1.15523
O         33.99772        34.16648        -1.07335
H         33.76817        33.33038        -1.53405
O         40.17612        41.62426         2.68317
H         39.32957        41.18528         2.91372
O         31.77739        38.64127         2.97398
H         30.98626        39.17738         3.21283
O         55.60356        44.04005        -1.83617
H         55.10083        44.61598        -2.45128
O         45.13177        36.23721        -1.25402
H         45.15700        35.36576        -1.70116
O         46.97269        47.88724        -1.63119
H         46.15435        47.62457        -2.11442
O         39.35750        49.94968        -3.43179
H         40.21816        50.28754        -3.75962
O         54.02648        41.82711        -1.49504
H         54.74488        42.39819        -1.87670
O         46.19390        31.39660        -1.75800
H         46.93310        31.01041        -2.27396
O         42.93411        49.01454         1.28149
H         42.12700        49.48672         1.57604
O         33.90125        48.53013         1.05270
H         33.25568        47.91481         1.46350
O         41.56188        29.18583         2.06151
H         42.34772        29.65353         2.41835
O         48.56474        43.69206        -1.28144
H         49.25830        43.14140        -1.70628
O         45.23772        37.16226         2.30594
H         45.21492        38.05395         2.73053
O         47.26110        25.09153        -2.94250
H         47.96149        24.73662        -3.52801
O         46.79769        24.85616         0.67881
H         46.10041        25.20268         1.27403
O         47.63821        36.01387         2.38041
H         47.34543        35.14208         2.72002
O         41.41848        38.24199        -1.37840
H         40.60352        38.73729        -1.60889
O         34.94621        25.06841        -2.45730
H         35.69807        24.72408        -2.98477
O         45.23157        40.06044         2.66146
H         45.85103        40.72957         3.02789
O         42.64692        23.61163        -3.16976
H         42.67487        22.73812        -3.61649
O         52.70392        40.52849         2.49375
H         52.62284        39.65559         2.93445
O         36.59653        48.73105         1.21554
H         35.64476        48.72923         1.50344
O         37.80224        46.38485         2.01710
H         37.51398        47.33179         2.07060
O         37.80696        33.01011         2.57770
H         36.98962        32.55220         2.86851
O         46.39387        43.96323         2.59623
H         46.04681        44.86269         2.82001
O         47.42975        48.80889         1.88389
H         48.13435        49.30715         2.34818
O         44.06637        47.68017        -1.96910
H         43.46243        46.92412        -2.13205
O         45.08664        46.21428         2.21462
H         45.09874        47.18016         2.39203
H         26.95049        26.78961         1.11343
H         25.75475        28.88623         1.47382
H         25.73308        31.32614         1.69736
H         25.72643        33.18606         1.79202
H         25.72346        35.60785         2.04989
H         25.71821        37.61945         2.08105
H         25.67735        39.64627         0.79098
H         26.26216        41.45360        -2.49707
H         26.60119        43.74378        -3.45724
H         27.80663        45.80515        -3.49912
H         29.04752        25.54970         0.72253
H         29.70203        47.22024        -2.83220
H         32.72324        23.56000        -0.53662
H         30.68887        24.65032         0.18835
H         32.76428        49.76021        -1.20796
H         30.96070        48.35674        -1.98734
H         34.34888        22.62419        -1.02159
H         34.53236        50.15568        -2.20151
H         36.45011        21.45152        -1.04991
H         36.68684        51.22597        -2.72509
H         40.17970        19.36194        -1.71660
H         38.05517        20.54306        -1.40755
H         40.32240        53.75404        -2.23703
H         38.25262        52.46174        -2.40072
H         42.63374        19.38386        -1.89302
H         42.80888        53.81302        -2.07614
H         44.78674        20.54876        -1.67329
H         44.93174        52.76204        -1.38499
H         48.55254        22.66816        -1.55254
H         46.46575        21.45349        -1.32145
H         48.59030        50.91697         0.15091
H         46.53392        51.97008        -0.55925
H         50.15596        23.72961        -1.83573
H         50.28438        49.88036         0.11556
H         52.27223        24.89314        -1.54169
H         52.38503        48.65885        -0.05318
H         56.03163        26.99359        -1.07390
H         53.90678        25.78405        -1.29038
H         56.08824        46.45740        -0.46469
H         54.02479        47.69068        -0.12008
H         57.28002        29.06276        -0.64243
H         57.32585        31.45246        -0.05933
H         57.33460        33.31109         0.43085
H         57.34407        35.70085         0.71065
H         57.35191        37.62983         0.73577
H         57.32454        40.08347         0.69109
H         56.98601        42.15950         1.54316
H         56.92755        44.54898         0.97343
