         234
 CSIRO Nanostructure Databank - Neutral Graphene Oxide Data Set
C          1.30313         1.96491        -0.01399
C          1.27703         3.36965         0.02597
C          2.49698         1.28330        -0.17133
C          2.45918         4.12132        -0.06173
C          1.23450         6.34046         0.07330
C          1.19208         7.70022         0.05845
C          2.45813         5.57976        -0.07296
C          2.39426         8.50404        -0.21253
C          1.24900        10.70995        -0.07953
C          1.27745        12.09996        -0.04914
C          2.43522         9.97710         0.03747
C          2.47513        12.79524         0.16914
C          1.24816        15.07632         0.19582
C          1.29060        16.43604         0.25038
C          2.45974        14.27742        -0.01608
C          2.53110        17.17207         0.28771
C          2.53128        18.59059         0.47115
C          3.72159         1.99984        -0.27976
C          3.70385         3.42810        -0.19368
C          4.94750         1.32062        -0.48566
C          4.94073         4.14077        -0.27833
C          3.67168         6.26608        -0.14487
C          3.68435         7.73792        -0.25571
C          4.93578         5.59161        -0.18051
C          4.93833         8.44195         0.14384
C          3.65448        10.66673         0.25276
C          3.67720        12.06961         0.37308
C          4.93799         9.91515         0.37822
C          4.94472        12.73988         0.90231
C          3.78600        15.01703         0.07575
C          3.75814        16.48901         0.30810
C          4.92751        14.24885         0.62319
C          4.98152        17.20492         0.48188
C          3.69916        19.28783         0.65928
C          4.98271        18.64783         0.64564
C          6.14981         2.02707        -0.64034
C          6.13414         3.44509        -0.52777
C          7.40279         1.33439        -0.83839
C          7.38219         4.23361        -0.84919
C          6.14649         6.31146        -0.17939
C          6.20330         7.73063        -0.12817
C          7.42507         5.52616        -0.03508
C          7.39865         8.45787        -0.27087
C          6.22853        10.64299         0.21295
C          6.26202        12.01365         0.47756
C          7.41689         9.90573        -0.16333
C          7.55329        12.66140         0.43229
C          5.92172        15.03256         1.12296
C          6.13770        16.39542         0.70483
C          7.80545        13.95103         0.94285
C          7.43738        16.82745         0.37404
C          6.13292        19.41834         0.96994
C          7.44014        18.98255         0.63995
C          8.62159         1.98947        -0.86209
C          8.66932         3.44244        -0.74062
C          9.86198         1.25178        -0.86194
C          9.86497         4.09155        -0.65362
C          8.64810         6.33317        -0.37604
C          8.63005         7.70068        -0.48060
C          9.90777         5.55556        -0.38449
C          9.86104         8.42645        -0.88776
C          8.62142        10.62528        -0.40896
C          8.69634        12.00841        -0.13780
C          9.84023         9.95027        -0.90574
C          9.91350        12.76237        -0.38446
C          8.85203        14.78421         0.48920
C          8.70790        16.23696         0.49962
C          9.92829        14.17839        -0.18544
C          9.86337        17.08739         0.28084
C          8.72355        19.27784         1.09710
C          9.87668        18.52117         0.65902
C         11.09809         1.84967        -0.74806
C         11.16184         3.36370        -0.99518
C         12.29277         1.02335        -0.71932
C         12.35914         4.14832        -0.48723
C         11.18987         6.31876        -0.49563
C         11.16362         7.77424        -0.75557
C         12.45637         5.59958        -0.91552
C         12.36465         8.48753        -0.81724
C         11.14382        10.65941        -0.86425
C         11.10413        12.07928        -0.77360
C         12.35297         9.92417        -0.92494
C         12.34128        12.86778        -0.98777
C         10.96245        15.09158        -0.83047
C         11.02020        16.47899        -0.20243
C         12.32801        14.37251        -0.92963
C         12.24457        17.25399        -0.34042
C         11.09928        19.20814         0.64648
C         12.30541        18.63964         0.16797
C         13.39428         1.36874         0.05436
C         13.28980         3.66030         0.36789
C         14.71314         0.82406         0.06114
C         14.53794         4.34263         0.65335
C         13.62402         6.38428        -0.35214
C         13.59888         7.75613        -0.49484
C         14.73055         5.71483         0.28919
C         14.86482         8.47117        -0.24543
C         13.65208        10.65543        -0.93410
C         13.65259        12.14798        -0.84352
C         14.90653         9.95406        -0.49341
C         14.83174        12.88510        -0.32285
C         13.57729        15.03462        -0.49254
C         13.58611        16.48529        -0.39261
C         14.78300        14.31553        -0.30854
C         14.77164        17.19700         0.26199
C         13.50290        19.35500         0.06625
C         14.77036        18.69268        -0.07587
C         15.75023         1.39762         0.82747
C         15.59358         3.64776         1.22458
C         17.13381         1.14864         0.78145
C         16.87912         4.20798         1.44731
C         15.86390         6.40994         0.76605
C         15.94227         7.81389         0.53334
C         16.97389         5.69554         1.45255
C         17.01740         8.59637         0.97038
C         15.94489        10.74013         0.20484
C         16.00568        12.19463         0.04875
C         16.86704        10.02029         0.94625
C         17.24677        12.93177         0.08916
C         16.02273        15.03877        -0.20808
C         16.04025        16.48814        -0.15935
C         17.22505        14.32405        -0.14235
C         17.20351        17.19212        -0.23118
C         15.97062        19.34483        -0.19013
C         17.24335        18.63045         0.21212
C         18.12411         1.97476         1.40730
C         17.89705         3.32713         1.85871
C         19.47556         1.48218         1.39029
C         19.79204         4.45803         1.75009
C         18.35086         6.49235         1.52877
C         18.33927         7.99311         1.29653
C         19.61229         5.76900         1.32730
C         19.64317         8.72362         0.92431
C         18.74835        11.03104         0.75844
C         18.56312        12.31178         0.12823
C         19.68949        10.11856         0.39421
C         19.69156        12.88287        -0.44913
C         18.55114        15.05135        -0.16507
C         18.42445        16.47768        -0.64889
C         19.61132        14.29781        -0.97068
C         19.69022        17.22852        -0.87539
C         18.53719        19.32431        -0.14197
C         19.67089        18.68619        -0.56408
C         20.67614         2.18956         1.34958
C         20.83751         3.59923         1.30814
C         21.98004         4.23501         0.70031
C         20.72588         6.37395         0.55247
C         20.79472         7.87524         0.43681
C         21.94640         5.55705         0.38101
C         22.08189         8.61252         0.27276
C         20.80363        10.57715        -0.54703
C         20.88808        12.10873        -0.62481
C         22.09189         9.89318        -0.12827
C         22.03699        12.79759        -0.98149
C         20.95398        15.01970        -0.93630
C         20.97936        16.47385        -0.87978
C         22.08401        14.22868        -1.02752
C         22.13914        17.22230        -0.85797
C         20.94667        19.36400        -0.65662
C         22.10918        18.65397        -0.79097
O         12.39820        13.67851        -2.22596
O          4.91734         8.97558         1.52361
O          6.93233        14.46062         1.91594
O         17.52263         6.22702         2.69054
O         17.78517        10.72503         1.73262
O         13.93506        11.45633        -2.12709
O          9.66255         9.17844        -2.13700
O         18.83061        16.81336        -2.00893
O          3.24092        14.62439        -1.22025
O         15.42200         9.03783        -1.51477
O         19.21473         8.60938         2.30516
O         15.37399         2.38017         1.76645
O         20.35787         7.08175        -0.72702
O         14.76234        17.08919         1.66292
O         13.00402        17.09394        -1.57929
O         10.72211         5.90707         0.82786
O          7.44791        18.00913        -0.37932
O         18.90019         3.88380         2.66765
O         13.12794         2.40986         0.96750
O          3.06699         8.20503        -1.50155
O          4.86580        12.58942         2.34679
H          5.65942        13.03204         2.72509
O         20.50218        10.12611        -1.89791
H         20.44020         9.14562        -1.88023
O         19.16203        14.22802        -2.34242
H         19.81754        13.70971        -2.85355
O         17.17817        18.55849         1.68129
H         16.32087        18.07973         1.89543
O         10.47856        15.32264        -2.17810
H         10.96461        14.69441        -2.76646
O          7.53804         5.12631         1.35960
H          7.71858         5.92557         1.89700
O          7.27163         4.62908        -2.24697
H          7.30383         3.81802        -2.79631
O         11.22155         3.39500        -2.46174
H         11.53615         4.29579        -2.73137
O         19.04339        15.11538         1.19941
H         18.36620        15.56026         1.75252
O         12.53748         5.71760        -2.36972
H         13.46802         5.57725        -2.64338
H          0.35894         1.40810         0.06454
H          0.30459         3.87075         0.12198
H          2.50988         0.18522        -0.22333
H          0.29907         5.79673         0.26544
H          0.24572         8.21100         0.28796
H          0.29610        10.19499        -0.26047
H          0.34527        12.65350        -0.22294
H          0.28805        14.56282         0.34798
H          0.35602        17.00258         0.37684
H          1.56886        19.12262         0.46996
H          4.95039         0.22174        -0.54032
H          3.66405        20.37808         0.79942
H          7.38089         0.23543        -0.89312
H          5.98512        20.39373         1.45850
H          9.79427         0.15253        -0.83213
H          8.89861        20.16139         1.72941
H         12.27863         0.06418        -1.26121
H         11.11244        20.26176         0.96507
H         14.95487         0.01675        -0.64458
H         13.49657        20.43078         0.30552
H         17.49110         0.27334         0.21813
H         16.00584        20.42032        -0.42754
H         19.56948         0.40153         1.19356
H         18.60397        20.39555         0.10781
H         21.57766         1.59177         1.13756
H         22.86829         3.62956         0.46751
H         22.80167         6.02066        -0.12947
H         23.02348         8.09771         0.51850
H         23.04917        10.42747        -0.22483
H         22.97557        12.25431        -1.16324
H         23.07674        14.69442        -1.12070
H         23.12128        16.72958        -0.89715
H         20.97364        20.45933        -0.56018
H         23.06890        19.18950        -0.81919
