         232
 CSIRO Nanostructure Databank - Neutral Graphene Oxide Data Set
C        -11.16177         0.84378        -0.34962
C         -9.96493         1.54534         0.08942
C         -8.80825         0.80481         0.38566
C         -7.45821         1.46961         0.28298
C         -6.29030         0.70973         0.91368
C         -5.00913         1.44645         0.89478
C         -3.70938         0.76414         0.93109
C         -2.49170         1.39993         0.36004
C         -1.16189         0.84478         0.86352
C          0.02521         1.41743         0.10774
C          1.13929         0.68400        -0.12726
C          2.35296         1.27255        -0.83215
C          3.64623         0.63341        -0.35540
C          4.84436         1.32728        -0.37788
C          6.10797         0.65319        -0.16591
C          7.35543         1.35434        -0.27914
C          8.50287         0.60415        -0.51651
C         10.34102         1.75545        -0.05626
C         11.31383         0.76532         0.40531
C         -9.92644         2.96688         0.08532
C         -8.76535         3.68432         0.47598
C         -7.54455         2.89532         0.79147
C         -6.22007         3.59810         0.93076
C         -5.00205         2.81887         0.64233
C         -3.91003         3.53252        -0.15124
C         -2.55793         2.81529        -0.10774
C         -1.30695         3.59626        -0.24143
C          0.04196         2.92745        -0.01795
C          1.16514         3.46427        -0.88384
C          2.36886         2.79215        -0.84595
C          3.63306         3.50653        -0.90354
C          4.85639         2.83313        -0.32697
C          6.17187         3.49451        -0.72499
C          7.40551         2.83540        -0.16687
C          8.66475         3.63721         0.06130
C          9.99601         2.99685         0.38211
C         -8.73607         5.07127         0.52692
C         -7.52261         5.85143         0.78886
C         -6.18014         5.09616         0.90420
C         -4.97375         5.78367         0.39383
C         -3.81159         5.03345         0.07233
C         -2.59235         5.71531        -0.25121
C         -1.36076         4.94158        -0.44606
C         -0.21741         5.65780        -1.14096
C          1.10961         4.90474        -1.18162
C          2.41799         5.64873        -1.03111
C          3.65929         4.87882        -0.90896
C          4.88855         5.71870        -1.19081
C          6.19731         4.96360        -0.96430
C          7.43599         5.72805        -0.64352
C          8.59569         5.08893        -0.26898
C         -7.45764         7.26994         0.43643
C         -6.23940         7.92025         0.33722
C         -5.01262         7.17858         0.22491
C         -3.84423         7.88428        -0.41203
C         -2.55844         7.11481        -0.29976
C         -1.31097         7.85574        -0.60434
C         -0.05938         7.05101        -0.57736
C          1.09893         7.52278        -0.07843
C          2.45664         6.91065        -0.18861
C          3.64851         7.82687        -0.49622
C          4.84923         7.15493        -0.68908
C          6.12216         7.84675        -0.72677
C          7.33534         7.16440        -0.70655
C         -6.16971         9.37586         0.30165
C         -4.98618        10.03798         0.24087
C         -3.73611         9.34866        -0.02954
C         -2.56032        10.02708        -0.13857
C         -1.30909         9.37359        -0.59640
C         -0.04735        10.19043        -0.68883
C          1.14435         9.75405        -0.19307
C          2.50472        10.13974        -0.49167
C          3.61861         9.29199        -0.49009
C          4.89959         9.95504        -0.65359
C          6.08435         9.28732        -0.71109
C        -11.22272        -0.50856        -0.47603
C        -10.17315        -1.36890         0.08468
C         -8.88757        -0.63167         0.56556
C         -7.63818        -1.39615         0.63815
C         -6.43826        -0.67247         1.03883
C         -5.36361        -1.54380         1.47481
C         -3.49022        -0.43492         1.54997
C         -2.33486        -1.28292         1.31432
C         -1.18777        -0.66732         0.90858
C          0.12945        -1.37876         0.90126
C          1.10844        -0.83470        -0.14105
C          2.45816        -1.51178         0.06289
C          3.63200        -0.79154        -0.13898
C          4.91999        -1.50074        -0.16089
C          6.14574        -0.72634        -0.00662
C          7.40899        -1.38636         0.31941
C          8.64712        -0.73013        -0.07809
C          9.90114        -1.37156         0.15467
C         11.12700        -0.59215         0.35836
C         -9.99163        -2.77379        -0.29042
C         -8.83014        -3.45274        -0.01869
C         -7.63473        -2.76580         0.43288
C         -6.39090        -3.60146         0.67727
C         -5.14237        -2.78923         0.94920
C         -3.81399        -3.48801         1.00787
C         -2.47889        -2.77106         1.28776
C         -1.21453        -3.49597         0.96508
C         -0.01066        -2.87228         0.79426
C          1.23589        -3.61523         0.62960
C          2.47514        -2.91564         0.37135
C          3.68833        -3.66962         0.39624
C          4.95027        -2.98911         0.07688
C          6.21333        -3.66943         0.39824
C          7.45259        -2.91575         0.53745
C          8.74698        -3.58732         0.34963
C          9.91790        -2.77859         0.32735
C         -8.80115        -4.96531        -0.15335
C         -7.46936        -5.49852        -0.65953
C         -6.20968        -4.74739        -0.29553
C         -4.91928        -5.46694        -0.29282
C         -3.67068        -4.63602        -0.01197
C         -2.48523        -5.51867         0.24422
C         -1.29545        -4.97739         0.90555
C         -0.00254        -5.76899         0.88834
C          1.24819        -4.99246         0.77841
C          2.49168        -5.75120         0.89817
C          3.75120        -5.04878         0.67617
C          4.98951        -5.78548         0.52115
C          6.23824        -5.05470         0.41558
C          7.51103        -5.73960         0.32612
C          8.71967        -4.99550         0.25293
C         -7.32231        -6.94183        -0.86452
C         -6.08807        -7.53151        -0.94723
C         -4.86157        -6.76710        -0.75125
C         -3.56055        -7.40700        -1.13204
C         -2.30260        -6.64523        -0.65438
C         -1.00178        -7.31504        -0.70031
C          0.05196        -7.08415         0.17130
C          1.25154        -7.88037         0.14856
C          2.46093        -7.31160         0.76104
C          3.80383        -8.05189         0.73846
C          5.01508        -7.18126         0.43758
C          6.25782        -7.85525         0.19952
C          7.46961        -7.15089         0.18209
C         -5.98137        -8.97279        -1.14727
C         -4.81844        -9.60560        -1.37100
C         -3.48792        -8.91577        -1.55011
C         -2.40140        -9.75085        -0.85303
C         -1.08226        -9.44835        -1.03951
C          0.16368       -10.02529        -0.61550
C          1.29735        -9.24360        -0.33419
C          2.58986        -9.90811        -0.40920
C          3.77632        -9.31610        -0.08110
C          5.05720        -9.94665        -0.30820
C          6.22675        -9.27343        -0.11099
O         -7.16095         1.58119        -1.14781
H         -7.06815         0.67778        -1.51672
O          9.57176         1.25516        -1.13066
O          2.33250        -6.66571         2.05801
O         -4.46042        -0.98480         2.37866
O          1.06507         8.67716         0.72079
O          2.74820         6.38735         1.15258
H          2.60043         7.12126         1.78757
O         -6.96257         3.08327         2.09678
O          2.20033         0.82552        -2.17630
O         -6.81170        -4.60666        -1.61848
O          0.66085        -1.18455        -1.46223
H          1.17349        -0.56333        -2.06895
O         -4.40282         3.44006        -1.52327
H         -3.98578         2.63710        -1.91834
O         -6.79974         5.65055         2.07867
O          4.04206        -8.53053         2.09924
H          3.65583        -7.85436         2.70469
O         -1.49405         8.63357        -1.87284
O         -2.53943         1.67681        -1.07117
O         -9.05647        -5.53786         1.13942
H         -8.33618        -5.22800         1.74075
O         -3.21453        -8.93830        -2.96580
H         -2.48043        -8.30149        -3.12563
O          0.41535         3.41579         1.33023
H         -0.12635         2.89273         1.97494
O          5.00332        -2.45509        -1.30915
O         -0.70485         5.76106        -2.50198
H          0.08337         5.89199        -3.07760
O         -3.20639        -3.53726         2.31928
O         -2.86818        -6.51159        -2.04312
O         -3.42795        -3.90082        -1.26514
H         -3.32120        -4.58001        -1.97458
O          7.71972         3.31449         1.18338
O         -9.91169        -1.09899         1.49711
O          4.79930         5.93885        -2.63538
H          5.09230         5.10093        -3.06463
O          4.78198         3.12931         1.11232
H          3.87721         2.91638         1.42531
O         -1.02426         1.29089         2.25741
H         -0.31197         0.73160         2.65019
O          1.82522         5.47881        -2.34552
O         -6.64145        -4.30824         1.95769
H         -6.57502        -3.65347         2.68675
O          0.73249        -1.06733         2.20723
H          0.32347        -1.65848         2.87557
O         -4.13295         7.87995        -1.86164
H         -3.28872         8.15473        -2.30255
O          6.35850         3.97445        -2.07541
O         -0.77718        -5.67582         2.12047
O         -0.85430        -8.21936        -1.74561
O          7.43071        -1.97829         1.66912
H         11.98551        -1.20254         0.68704
H         12.27654         1.13207         0.79669
H         10.57361         3.47576         1.18777
H          9.49650         5.69561        -0.08244
H          8.26504         7.75083        -0.63353
H          7.03152         9.84268        -0.77549
H          4.89852        11.05523        -0.67746
H          2.68697        11.19381        -0.75729
H         -0.07418        11.03640        -1.39202
H         -2.53224        11.10641         0.07870
H         -4.96032        11.13442         0.33140
H         -7.10727         9.93492         0.43641
H         -8.39435         7.83708         0.32690
H         -9.63395         5.62871         0.21744
H        -10.83775         3.52635        -0.17259
H        -11.99524         1.45956        -0.71976
H        -12.07910        -0.98157        -0.97934
H        -10.83062        -3.30077        -0.77145
H         -9.62707        -5.29994        -0.83123
H         -8.22892        -7.56506        -0.88358
H         -6.91723        -9.55088        -1.10664
H         -4.81705       -10.69528        -1.52345
H         -2.69276       -10.67552        -0.33503
H          0.27782       -11.12006        -0.62514
H          2.60651       -10.90616        -0.87473
H          5.07177       -10.98790        -0.66370
H          7.18697        -9.78085        -0.28642
H          8.40799        -7.70305         0.02181
H          9.66462        -5.54288         0.11428
H         10.89579        -3.27930         0.40605
