         671
 CSIRO Nanostructure Databank - Neutral Graphene Oxide Data Set
C          5.90661        31.93110        -0.21207
C          5.87785        33.27829        -0.00975
C          8.38843        27.57760        -0.48995
C          8.32869        29.00510        -0.54453
C          7.14805        29.74266        -0.43407
C          8.34379        31.85427        -0.03946
C          7.14058        31.16356        -0.21731
C          8.37156        33.22024         0.46537
C          7.05693        34.00648         0.48437
C          8.36465        36.13008         0.64962
C          7.17155        35.47770         0.45703
C          8.43451        37.56223         0.74072
C         10.95853        23.36906        -0.37825
C         10.87710        24.73699        -0.69033
C          9.69258        25.47060        -0.46193
C         10.81955        27.62962        -1.00100
C          9.57828        26.86437        -0.69377
C         10.87664        29.02787        -0.54392
C          9.60190        29.74203        -0.68113
C         10.88670        31.83660         0.04510
C          9.61643        31.23273        -0.39526
C         10.83506        33.24422         0.41167
C          9.65937        33.94262         0.47204
C         10.74194        35.95184         1.60707
C          9.71805        35.45008         0.55706
C         10.78739        37.48201         1.60624
C          9.60253        38.21883         1.09362
C         10.87369        40.32786         1.20715
C          9.67758        39.64417         1.09415
C         10.84722        41.83626         1.21497
C         13.39884        19.04461        -0.20188
C         13.36914        20.42322        -0.42565
C         12.16845        21.20271        -0.28391
C         13.33112        23.19838        -1.15097
C         12.10655        22.55865        -0.60814
C         13.30600        24.65988        -1.51120
C         11.95755        25.39324        -1.54577
C         13.36095        27.57505        -0.85376
C         12.09674        26.91499        -1.29650
C         13.33713        28.92859        -0.38371
C         12.07385        29.68695        -0.33637
C         13.38560        31.80859         0.16487
C         12.06106        31.10496        -0.00881
C         13.28308        33.04730         1.04297
C         12.04879        33.86155         0.99697
C         13.30031        35.96741         1.36182
C         12.09778        35.31489         1.30705
C         13.41046        37.39269         1.89536
C         12.10853        38.21944         1.73637
C         13.32901        40.34770         1.06344
C         12.13501        39.65427         1.33264
C         13.32482        41.71104         0.61829
C         12.09692        42.46829         0.65200
C         13.24968        44.52020        -0.06023
C         12.06544        43.80516         0.32316
C         13.29309        45.89123        -0.03933
C         15.92890        14.80919         0.16431
C         15.83741        16.14042        -0.26950
C         14.63989        16.89475        -0.10337
C         15.82009        18.94262        -0.73107
C         14.59784        18.27512        -0.35109
C         15.82703        20.34756        -0.86436
C         14.61386        21.10256        -0.74655
C         15.83458        23.18627        -1.20839
C         14.61564        22.49102        -0.95138
C         15.85846        24.67522        -1.33899
C         14.58754        25.46105        -1.42346
C         15.78751        27.48310        -0.48361
C         14.57057        26.85952        -0.89022
C         15.77393        28.84500        -0.04757
C         14.54316        29.54232         0.02429
C         15.78822        31.65820         0.74546
C         14.47869        30.88919         0.72990
C         15.80153        33.00498         1.02405
C         14.56882        33.75776         1.45625
C         15.72094        35.92926         0.80129
C         14.55654        35.25279         1.11866
C         15.79351        37.37438         0.82376
C         14.66594        38.13978         1.40272
C         15.77764        40.25306         0.41827
C         14.62764        39.63984         1.10997
C         15.71578        41.61915         0.02663
C         14.51763        42.33652         0.14225
C         15.73044        44.48300        -0.49688
C         14.43383        43.70683        -0.51249
C         15.76751        45.86636        -0.40299
C         14.52867        46.63195        -0.17077
C         15.84886        48.72972         0.22176
C         14.55174        47.98282         0.05275
C         15.79437        50.21134        -0.07066
C         18.27841        10.67566         1.40457
C         18.25814        11.89379         0.60351
C         17.13754        12.74539         0.65033
C         18.28629        14.53999        -0.61646
C         17.12906        14.03708         0.07408
C         18.26834        15.99285        -1.14748
C         17.00700        16.78493        -0.81398
C         18.27048        18.85075        -1.43125
C         17.00314        18.16031        -0.97981
C         18.25723        20.34204        -1.26841
C         17.07003        21.04795        -1.13222
C         18.29494        23.25470        -1.51731
C         17.02874        22.48825        -1.24686
C         18.25627        24.63297        -0.90317
C         17.08935        25.35143        -0.85214
C         18.23099        27.42457        -0.17532
C         17.03951        26.75459        -0.47974
C         18.26287        28.81262         0.16880
C         17.01769        29.53122         0.29353
C         18.25868        31.60194         0.97048
C         17.00898        30.89738         0.63488
C         18.30678        33.06565         0.81214
C         17.05340        33.82840         1.14872
C         18.21783        35.85676         0.20658
C         16.90667        35.10595         0.30373
C         18.11871        37.30179        -0.09594
C         16.92933        38.06474         0.37713
C         18.18323        40.21557        -0.07466
C         16.95068        39.49266         0.22937
C         18.18932        41.55953        -0.35777
C         16.88247        42.19703        -0.76072
C         18.28421        44.47666        -0.65834
C         16.94826        43.72484        -0.79307
C         18.24276        45.92748        -0.41490
C         17.01403        46.58514        -0.43553
C         18.26107        48.79290        -0.41858
C         16.94746        48.07753        -0.61477
C         18.23478        50.18249        -0.40773
C         16.96030        50.90590        -0.32209
C         18.19889        53.04624        -0.46275
C         16.99754        52.33535        -0.43832
C         18.22012        54.46654        -0.55705
C         20.91808         6.59724         2.37748
C         20.75598         7.77868         1.64450
C         19.57057         8.52322         1.89763
C         20.78488        10.30710        -0.01048
C         19.08130         9.58688         1.09137
C         20.70889        11.70516        -0.04675
C         19.39808        12.37805        -0.11491
C         20.64368        13.77777        -1.58545
C         19.35491        13.63725        -0.78761
C         20.78960        16.20757        -0.61723
C         19.45270        16.83502        -0.62051
C         20.67063        19.04686        -0.33131
C         19.47813        18.18827        -0.76381
C         20.78993        20.36258        -1.06333
C         19.54982        21.05874        -1.58529
C         20.78637        23.21836        -1.15603
C         19.49683        22.46715        -0.97365
C         20.81062        24.56951        -0.94222
C         19.54054        25.23124        -0.52026
C         20.76327        27.45293        -0.38211
C         19.50931        26.68264        -0.17117
C         20.75855        28.83829         0.11213
C         19.52219        29.46141         0.36312
C         20.78203        31.64125         0.56675
C         19.56371        30.85809         0.81390
C         20.75032        33.04852         0.48054
C         19.46818        33.74324         0.53146
C         20.69255        35.83377        -0.13117
C         19.41163        35.17777         0.22278
C         20.70582        37.32630        -0.34028
C         19.40437        38.05813        -0.33123
C         20.64636        40.15240         0.09695
C         19.45168        39.49692        -0.04490
C         20.58182        41.63417         0.35000
C         19.52777        42.26255        -0.56386
C         20.67189        44.45101        -0.00871
C         19.51122        43.75664        -0.32471
C         20.70460        45.90031        -0.11962
C         19.49315        46.61500        -0.30060
C         20.71010        48.74216        -0.42434
C         19.50392        48.06550        -0.36439
C         20.70236        50.18243        -0.67303
C         19.45397        50.92760        -0.50090
C         20.70617        53.03822        -0.31001
C         19.46979        52.32421        -0.44594
C         20.62146        54.47637         0.13817
C         19.40588        55.20000        -0.39244
C         20.66473        57.32985        -0.38637
C         19.45535        56.58762        -0.55224
C         20.70271        58.69017        -0.70935
C         23.38331         3.86176         3.09217
C         22.17105         4.56647         3.01666
C         23.27898         6.32742         1.71616
C         22.09858         5.79678         2.33976
C         23.21917         7.55429         1.00437
C         21.85453         8.10932         0.59480
C         23.16083        10.29316         0.11660
C         21.95321         9.59380         0.27356
C         23.16685        11.70668        -0.04752
C         21.93617        12.41930         0.01712
C         23.19187        14.60863         0.03355
C         21.87090        13.89393        -0.15917
C         23.24644        16.11492         0.04256
C         21.96762        16.90234        -0.01755
C         23.22823        18.94833        -0.38258
C         22.01055        18.32682        -0.32426
C         23.22841        20.41399        -0.59023
C         21.97949        21.01614        -1.13925
C         23.34007        23.22698        -1.43772
C         22.01016        22.47030        -1.47847
C         23.27472        24.61022        -0.93163
C         22.07030        25.26839        -0.81554
C         23.30102        27.41229        -0.16775
C         22.05657        26.73551        -0.58886
C         23.24756        28.82365         0.17267
C         21.99430        29.51853         0.23407
C         23.22894        31.64040         0.41281
C         21.99737        30.93600         0.41658
C         23.22483        33.06352         0.37278
C         21.97720        33.75681         0.34010
C         23.17777        35.88360         0.04648
C         21.98387        35.17470         0.15919
C         23.18420        37.33895         0.01662
C         21.93752        38.05733        -0.00373
C         23.12057        40.18475         0.32749
C         21.91233        39.45195         0.13026
C         23.10978        41.58523         0.41320
C         21.91778        42.33432         0.30119
C         23.11230        44.49100         0.50748
C         21.92161        43.75085         0.27707
C         23.11991        45.90043         0.37600
C         21.95307        46.58676        -0.01737
C         23.19029        48.82733        -0.03040
C         22.02295        48.00775        -0.53560
C         23.21164        50.19468        -0.14176
C         22.01691        50.95265        -0.58583
C         23.16668        53.10082         0.00506
C         21.93623        52.38841        -0.28794
C         23.14264        54.49523         0.08781
C         21.91799        55.24344         0.00435
C         23.13251        57.45377         0.26453
C         21.89037        56.63209        -0.03502
C         23.14252        58.82401        -0.36105
C         21.93158        59.42741        -0.78385
C         23.18504        61.41472        -1.41328
C         21.97203        60.74239        -1.30682
C         24.54731         4.39689         2.56171
C         25.71907         6.27451         1.44656
C         24.52813         5.65611         1.89444
C         25.69003         7.55328         0.87740
C         24.41767         8.16745         0.61889
C         25.71842        10.27075        -0.11356
C         24.40932         9.51663         0.01984
C         25.65845        11.73929        -0.05565
C         24.45748        12.39292        -0.09451
C         25.74093        14.58812        -0.24568
C         24.47812        13.86881         0.07986
C         25.67724        16.00762        -0.77191
C         24.49126        16.81852        -0.27778
C         25.75558        18.90583        -0.57880
C         24.48357        18.19722        -0.39929
C         25.79194        20.31324        -0.65672
C         24.53769        21.11386        -0.68985
C         25.86860        23.16364        -0.91528
C         24.65760        22.43025        -1.44844
C         25.80024        24.56411        -0.46108
C         24.49733        25.27232        -0.42398
C         25.74080        27.35893         0.22188
C         24.49536        26.73021        -0.17791
C         25.66341        28.72204         0.86645
C         24.43388        29.49836         0.47103
C         25.67880        31.63252         0.56512
C         24.44891        30.92240         0.50670
C         25.68772        33.04667         0.38223
C         24.45870        33.75911         0.28886
C         25.64331        35.89205        -0.02053
C         24.45582        35.19736         0.12423
C         25.63554        37.35661        -0.35618
C         24.38143        38.03323         0.09552
C         25.66007        40.20935         0.26121
C         24.40343        39.44232         0.61029
C         25.66415        41.59245         0.41854
C         24.38330        42.28070         0.71107
C         25.67570        44.48685         0.74225
C         24.37296        43.77852         0.83512
C         25.64232        45.94258         1.17149
C         24.33113        46.66794         0.80607
C         25.66153        48.85521         0.48590
C         24.36591        48.14381         0.55815
C         25.65585        50.21174         0.25826
C         24.41941        50.95056         0.11689
C         25.67220        53.06305         0.21495
C         24.41192        52.35295         0.10781
C         25.69226        54.55320        -0.01171
C         24.40289        55.26103         0.40503
C         25.68457        57.40439         0.09636
C         24.37792        56.68277        -0.19601
C         25.62227        58.92169         0.15063
C         24.36188        59.51190        -0.45093
C         24.37440        60.81016        -0.98738
C         26.92976         8.26536         0.64174
C         28.19772        10.35579         0.17506
C         26.97872         9.59239         0.26872
C         28.20119        11.73512         0.03787
C         26.92255        12.50097         0.30743
C         28.16517        14.52184        -0.81627
C         26.90731        13.90747        -0.24769
C         28.17284        16.02759        -0.68996
C         27.00164        16.72338        -0.60097
C         28.20631        18.88910        -0.51280
C         26.98107        18.18539        -0.55653
C         28.22816        20.28247        -0.61580
C         27.02095        21.00349        -0.71941
C         28.21812        23.16493        -0.19581
C         27.02886        22.47068        -0.67252
C         28.26125        24.54222        -0.04818
C         27.07867        25.36393        -0.52411
C         28.19115        27.38029         0.49552
C         26.95307        26.70863         0.14965
C         28.18568        28.77017         0.74618
C         26.94761        29.50678         0.74575
C         28.14023        31.68865         0.85466
C         26.90614        30.89797         0.70881
C         28.13730        33.12108         0.49688
C         26.93266        33.75775         0.26111
C         28.16721        35.95655         0.08017
C         26.93171        35.16369        -0.27421
C         28.13555        37.38574         0.03266
C         26.90885        38.08680        -0.01754
C         28.12277        40.23315         0.09486
C         26.88999        39.49873         0.08580
C         28.10096        41.63688         0.31156
C         26.88793        42.33693         0.42610
C         28.15472        44.48238         0.71940
C         26.86222        43.79022         0.63508
C         28.18042        45.95304         1.12372
C         26.90298        46.69793         0.79641
C         28.13267        48.82080         0.58335
C         26.91800        48.09852         0.61757
C         28.12030        50.32280         0.75400
C         26.95132        50.92623        -0.01932
C         28.14413        53.15109         0.09027
C         26.88005        52.41716         0.17562
C         28.17331        54.51915         0.13605
C         26.92593        55.24932         0.59986
C         26.84082        56.74562         0.33004
C         29.41109        12.49455        -0.05641
C         30.64075        14.61226        -0.24468
C         29.43408        13.86093        -0.32741
C         30.71701        15.99560        -0.43714
C         29.48751        16.76737        -0.87909
C         30.74608        18.88540        -0.37361
C         29.45867        18.11734        -0.17254
C         30.75727        20.26167        -0.39000
C         29.51873        21.05051        -0.74292
C         30.73514        23.04575         0.32775
C         29.44330        22.36055         0.01510
C         30.73916        24.52446         0.69479
C         29.44823        25.25318         0.33363
C         30.73088        27.36246         0.75726
C         29.42320        26.63737         0.49202
C         30.62871        28.83082         0.42758
C         29.44626        29.47967         0.65589
C         30.66788        31.70205         0.49569
C         29.44424        30.94968         0.79577
C         30.62371        33.15372         0.57068
C         29.38429        33.83352         0.44767
C         30.63132        35.95032         0.27481
C         29.38472        35.25837         0.28596
C         30.63112        37.36893        -0.09605
C         29.36583        38.13474        -0.02664
C         30.62441        40.26152        -0.52789
C         29.36128        39.52795        -0.07716
C         30.54435        41.81801        -0.34338
C         29.42166        42.29422         0.61906
C         30.64045        44.52040         0.87474
C         29.33373        43.80520         0.61766
C         30.60016        45.98950         0.53504
C         29.43115        46.66360         0.66566
C         30.57041        48.83027         0.01215
C         29.45269        48.16046         0.83554
C         30.72681        50.30189         0.42158
C         29.40323        51.03504         0.33680
C         29.37002        52.35297         0.01795
C         31.92532        16.72141        -0.30076
C         33.20945        18.86547        -0.39072
C         31.98470        18.14010        -0.34393
C         33.24429        20.27221        -0.38510
C         31.99661        20.99442        -0.30544
C         33.20567        23.13710        -0.15904
C         31.99332        22.37954        -0.09000
C         33.17275        24.53463        -0.07735
C         31.95461        25.26449         0.17241
C         33.05558        27.41560        -0.40366
C         31.90963        26.63979         0.13616
C         33.11609        28.89239        -0.04628
C         31.75199        29.57687        -0.25667
C         33.08624        31.73027         0.20073
C         31.81433        31.04106         0.13581
C         33.07228        33.06449         0.94681
C         31.83592        33.86197         0.62135
C         33.11324        35.99998         0.58675
C         31.85683        35.26837         0.46536
C         33.12200        37.38147         0.52287
C         31.94592        38.12304         0.01599
C         33.06633        40.30634         0.14457
C         31.89483        39.60167         0.01012
C         33.09128        41.74481         0.08028
C         31.86670        42.45936         0.06751
C         33.11242        44.55322         0.35821
C         31.87511        43.82280         0.35872
C         33.08841        45.96829         0.37261
C         31.87114        46.70439         0.33742
C         31.86012        48.07130         0.12815
C         34.45782        21.03688        -0.42993
C         35.68395        23.19862        -0.46507
C         34.46298        22.43039        -0.36293
C         35.71227        24.57787        -0.35705
C         34.45337        25.31984         0.02115
C         35.63371        27.46922        -0.72901
C         34.34850        26.69435        -0.61551
C         35.60653        28.97322        -0.74038
C         34.24276        29.70872        -0.75399
C         35.53487        31.67943         0.30581
C         34.25252        31.08606        -0.10561
C         35.59611        33.07770         0.86766
C         34.34330        33.86646         0.81325
C         35.63842        35.95855         0.82797
C         34.35627        35.24000         0.78165
C         35.65446        37.44235         1.16139
C         34.32107        38.16193         0.90576
C         35.60418        40.31489         0.33913
C         34.31165        39.63035         0.60893
C         35.57279        41.70523         0.15909
C         34.34490        42.44070         0.17974
C         34.33284        43.84578         0.22785
C         36.91379        25.36734        -0.38520
C         38.08833        27.56325        -0.39251
C         36.90704        26.76312        -0.43526
C         38.12463        28.96558        -0.47710
C         36.87234        29.71615        -0.49515
C         37.84181        31.99669        -0.48833
C         36.77353        31.07996        -0.23388
C         38.00947        33.22980         0.08518
C         36.93804        33.80246         0.99454
C         38.14901        36.04374         0.92574
C         36.82967        35.30151         0.82538
C         38.02134        37.45136         0.39664
C         36.84666        38.15099         0.52284
C         36.77794        39.55227         0.23526
C         39.41484        29.61985        -0.24852
C         40.75305        31.83426        -0.21873
C         39.69834        30.91405        -0.61178
C         40.55143        33.18386        -0.09628
C         39.29040        33.92768         0.03067
C         39.32064        35.26701         0.34794
O         21.07264        15.65170        -1.73285
O         12.37612        32.96108         2.17071
O         11.22468        38.01390         2.89422
O         15.42054        25.25956        -2.62248
O         23.99493        47.59886         1.91156
O         33.45736        26.92922        -1.73526
O         25.07196         9.66016        -1.28246
O         24.31688        42.91803         2.04347
O          9.64083        30.72185        -1.77608
O         20.78207        36.42075        -1.48723
O         18.53328        37.69869        -1.45292
O         19.60802         9.57949        -0.22620
O          7.61453        33.42082         1.71267
O         31.46654        37.59654        -1.30459
O         38.76331        31.55494        -1.45154
O         21.48707        50.55495        -1.89573
O         13.30446        23.65485        -2.56404
O         25.05986        24.60765         0.80620
O         28.87374        31.37393         2.09088
O         22.63249        22.98130        -2.70189
O         23.80201        14.21101         1.34062
O         18.96465        31.07342         2.14700
O         29.98957        22.27418         1.36664
O         35.55884        31.91960         1.79198
O         35.74777        28.20040        -1.99612
O         15.05066        39.11543         2.42997
O         28.03040        14.18247        -2.28737
O         23.78653        21.17421         0.56005
O         19.60345        25.66972         0.89862
O         11.38162        27.61066        -2.37203
O         22.52926        16.56928         1.28314
O         21.34373        27.37803        -1.73446
O         17.69558        44.15521        -1.98029
O         34.08845        39.14453         1.99012
O         20.90401        13.28802        -2.63741
O         24.18645        56.63945        -1.62566
H         24.86706        56.03450        -2.00621
O         24.97474        22.07161        -2.81520
H         24.17720        22.27036        -3.36296
O         16.62640        41.78661        -2.14327
H         15.84327        42.30904        -2.44383
O         20.37811        19.37749         1.06003
H         21.03341        20.04136         1.36432
O         25.64806        59.30551         1.54418
H         24.89422        58.84499         1.97851
O         20.94785        14.60945         0.69651
H         21.48174        15.08404         1.39304
O         25.83364        54.66486        -1.46197
H         26.65119        54.18335        -1.71452
O         14.62269        33.74554         2.91674
H         13.69499        33.56694         3.22334
O         27.29841        25.62688        -1.94355
H         28.14196        26.11833        -2.03512
O         20.07875        41.83913         1.70712
H         20.76647        41.53326         2.33525
O         30.84571        24.58981         2.15478
H         30.31922        23.82809         2.49843
O         38.49789        36.15868         2.34115
H         38.18388        35.32889         2.77355
O         23.18020        57.67018         1.72228
H         22.38333        58.18828         1.96625
O         13.60528        37.18442         3.31270
H         14.01000        38.00790         3.66963
O         32.96497        32.71573         2.36224
H         33.77782        32.20072         2.58290
O         29.78623        41.89194         1.96721
H         30.27905        42.64381         2.38333
O         19.90480        42.07124        -1.94701
H         19.15876        42.40248        -2.49655
O         35.88402        37.46137         2.59157
H         35.48138        38.29430         2.93279
O         10.28792        35.90507        -0.71325
H          9.70046        35.60907        -1.44010
O         30.20625        42.42547        -1.60779
H         30.45564        41.78289        -2.31400
O         30.78650        44.47295         2.34942
H         30.01796        44.98023         2.71730
O         29.75743        48.39332         2.25696
H         29.28849        47.67489         2.75207
O         18.44300        23.43248        -2.95839
H         17.63415        23.88059        -3.29051
O         13.80364        32.27796        -1.13953
H         13.74582        31.53209        -1.77301
O         33.90904        29.90391        -2.14595
H         34.31004        29.13914        -2.63343
O         18.39112        15.92644        -2.58059
H         19.33290        15.73541        -2.79446
O         19.28987        22.27692         0.44638
H         19.31988        23.15323         0.88812
O         25.59775        37.40899        -1.85755
H         24.70289        37.11025        -2.13380
O         33.42743        28.92810         1.36369
H         32.71017        28.46001         1.85777
O         14.20877        43.40166        -1.94786
H         13.29365        43.05693        -2.02923
O         29.61631        17.03747        -2.29780
H         29.57667        16.16137        -2.75887
O         26.99917        35.02049        -1.75089
H         26.73412        35.89887        -2.12523
O         20.40730        54.39160         1.59903
H         20.25574        55.30453         1.92372
O         25.66038        45.85867         2.64478
H         25.12541        46.63064         2.96077
O         29.66014        21.42406        -2.14567
H         29.65011        20.60299        -2.68158
O         10.30972        35.51320         2.89906
H         10.76459        36.08150         3.56084
O         16.59686        34.68533        -1.05151
H         16.76680        35.43902        -1.65592
O         16.24039        48.58647         1.62414
H         15.55514        49.01827         2.17558
O         17.22889        34.24149         2.52880
H         16.38625        34.07619         3.01958
O         21.47342         7.41028        -0.61784
H         20.64429         7.83232        -0.93696
O         31.00958        27.34244         2.20371
H         30.98836        26.38853         2.48145
O         30.16654        48.84839        -1.38836
H         30.18211        47.92600        -1.72104
O         11.42431        25.22995        -2.87500
H         12.11311        25.49260        -3.52010
O          9.68179        42.34869         0.56214
H          9.74248        42.13562        -0.39118
O         28.31448        45.95493         2.60697
H         27.39349        45.78140         2.95463
O         29.35368        14.34902        -2.89686
H         29.23227        13.85906        -3.74623
O         27.91303        50.55884         2.17234
H         28.60421        50.03777         2.64501
O         24.44902        39.30845         2.08787
H         24.50922        40.21584         2.46023
O         25.48529        28.47663         2.31241
H         26.27711        27.99002         2.62710
O         25.45530        15.87620        -2.21622
H         25.65262        16.74122        -2.63371
O         24.41107        55.34331         1.85715
H         23.77969        56.05347         2.13032
O         31.70613        50.91630        -0.41481
H         31.50457        50.63901        -1.33436
O         29.38536        17.82639         1.25202
H         29.36899        18.67694         1.73905
O         31.37368        29.50118        -1.65763
H         32.17314        29.76048        -2.18701
O         27.21314        50.70817        -1.44085
H         28.17259        50.85281        -1.59509
O         30.69054        40.03985        -1.96952
H         30.90628        39.07748        -2.09837
O         14.10874        30.60443         2.10298
H         14.87117        30.17493         2.54369
O         22.26282        47.86183        -1.98617
H         22.11891        48.76120        -2.37457
O         26.98812        55.10223         2.03858
H         26.08348        55.29148         2.39080
O         34.61376        25.64072         1.45102
H         34.63445        24.79515         1.94749
O         26.89405        12.66224         1.76532
H         26.91864        11.76878         2.16773
O         16.56198        48.28868        -2.00718
H         17.18800        47.79123        -2.57441
O         19.70946        21.11009        -3.02769
H         19.19121        21.88442        -3.36727
O         18.43681        18.62197        -2.86487
H         18.99308        19.35642        -3.22449
O         37.40604        33.61540         2.36715
H         36.97258        32.79274         2.69906
H          4.98381        31.41081        -0.50968
H          4.94920        33.84229        -0.18441
H          7.46471        27.02023        -0.27033
H          6.18365        29.21225        -0.42581
H          6.24455        36.06875         0.38139
H          7.53136        38.15461         0.52605
H         10.08627        22.89606         0.10101
H          8.81702        24.93803        -0.05732
H          8.75878        40.22374         0.91665
H         10.76403        42.15601         2.29370
H         12.47018        18.52237         0.07477
H         11.26300        20.70084         0.09113
H         11.12845        44.36514         0.46425
H         12.38458        46.45181         0.23216
H         15.04904        14.34032         0.63079
H         13.73589        16.38048         0.25689
H         13.60719        48.50864         0.26895
H         14.84724        50.75734         0.06608
H         17.69325        10.66775         2.33662
H         16.23417        12.40774         1.18007
H         16.04615        52.88899        -0.44141
H         17.27943        55.00108        -0.76165
H         20.09227         6.26250         3.02578
H         19.00629         8.26111         2.80788
H         18.55378        57.12285        -0.88815
H         19.77404        59.18551        -1.03099
H         23.41399         2.89370         3.61167
H         21.27015         4.16007         3.49847
H         23.21085        62.43223        -1.82789
H         21.03983        61.22099        -1.63956
H         25.50213         3.86209         2.66777
H         26.68371         5.77140         1.61043
H         26.52726        59.37406        -0.32740
H         25.32509        61.35745        -1.06287
H         27.86678         7.74330         0.89068
H         29.15514         9.81071         0.18589
H         29.13899        55.04868         0.12712
H         27.75239        57.33424         0.52947
H         30.36690        11.97268         0.11541
H         31.55260        14.07480         0.06445
H         31.09952        50.34859         1.47791
H         30.31577        52.87052        -0.20909
H         32.86260        16.16052        -0.15431
H         34.15716        18.30610        -0.42517
H         34.03877        46.51786         0.29979
H         32.80525        48.61519        -0.02116
H         35.41458        20.50166        -0.53111
H         36.62002        22.65416        -0.66594
H         36.51787        42.25553         0.03821
H         35.28218        44.40085         0.22785
H         37.88288        24.84405        -0.35823
H         39.04640        27.03797        -0.25313
H         38.92237        37.95760         0.01498
H         37.71002        40.06447        -0.05117
H         40.17674        29.03828         0.29283
H         41.76652        31.43987        -0.04273
H         41.44563        33.79124         0.12406
H         40.29654        35.77768         0.39307
