         404
 CSIRO Nanostructure Databank - Neutral Graphene Oxide Data Set
C          1.19816         2.09889        -0.72979
C          1.17380         3.48814        -0.54857
C          2.39380         1.39820        -0.68350
C          2.35882         4.21582        -0.31573
C          1.14210         6.40621        -0.14763
C          1.12319         7.77318        -0.02855
C          2.36094         5.64797        -0.07746
C          2.29698         8.52536         0.27606
C          1.06692        10.69143         0.36380
C          1.07891        12.06032         0.50220
C          2.26646         9.91607         0.41473
C          2.29717        12.81336         0.50714
C          1.18792        14.99377         1.01768
C          1.26794        16.37075         1.24259
C          2.30335        14.25003         0.55527
C          2.39839        17.10395         0.86127
C          2.54731        18.49439         1.14269
C          3.61730         2.08517        -0.45759
C          3.59782         3.51107        -0.27397
C          4.83979         1.38801        -0.41834
C          4.82113         4.21353        -0.07745
C          3.56585         6.31975         0.17741
C          3.53387         7.74425         0.68101
C          4.81403         5.63191         0.11554
C          4.84808         8.47605         0.48941
C          3.51833        10.66403         0.69450
C          3.53316        12.12322         0.44734
C          4.83364         9.94373         0.72397
C          4.74767        12.80291         0.20662
C          3.50640        14.92949         0.18434
C          3.45832        16.40965         0.10322
C          4.68891        14.21265        -0.03961
C          4.70507        17.18848        -0.26081
C          3.71092        19.18192         0.89073
C          4.86257        18.56666         0.27324
C          6.07340         2.05488        -0.20705
C          6.05992         3.50401        -0.04662
C          7.27008         1.32879        -0.22921
C          7.26275         4.22490         0.04441
C          6.05179         6.34275         0.22950
C          6.02650         7.79136         0.40871
C          7.27880         5.64765         0.13876
C          7.32273         8.46791         0.80743
C          6.06149        10.72449         0.45429
C          6.02050        12.08652         0.18177
C          7.33778         9.99921         0.62581
C          7.24735        12.82545        -0.15877
C          5.90927        14.90157        -0.50664
C          5.94216        16.41570        -0.60967
C          7.18984        14.17643        -0.45657
C          7.25269        17.11067        -0.51348
C          6.05607        19.22147         0.15658
C          7.25016        18.62875        -0.54397
C          8.55701         1.95897         0.01308
C          8.53606         3.48227         0.12381
C          9.83305         1.27201        -0.25696
C          9.75646         4.20755        -0.33020
C          8.55455         6.38202         0.13440
C          8.55476         7.75808         0.27417
C          9.79901         5.66477        -0.11429
C          9.81893         8.51835         0.19127
C          8.60741        10.72881         0.22412
C          8.52261        12.13169        -0.24130
C          9.77563         9.94415        -0.14550
C          9.69484        12.77151        -0.60491
C          8.38560        14.94657        -0.85409
C          8.41142        16.41652        -0.64470
C          9.70188        14.21496        -0.92391
C          9.71986        17.15108        -0.90956
C          8.55330        19.18686        -0.04482
C          9.73695        18.52648        -0.26969
C         11.04345         1.95349        -0.29301
C         11.03750         3.42960        -0.48508
C         12.30074         1.29986        -0.25506
C         12.30085         4.17224        -0.36304
C         11.02849         6.29837        -0.20910
C         11.10167         7.75923        -0.05509
C         12.27886         5.58498        -0.33549
C         12.30089         8.43597        -0.57147
C         10.87599        10.57921        -0.84538
C         10.95441        12.05823        -0.76365
C         12.19911         9.79738        -1.07204
C         12.15094        12.73436        -0.81086
C         10.94831        14.96723        -0.66269
C         10.97014        16.34257        -0.58605
C         12.16916        14.17027        -0.43994
C         12.21861        17.04654        -0.38493
C         10.98698        19.15352        -0.01739
C         12.21397        18.48006        -0.18242
C         13.52535         2.01489        -0.22743
C         13.51534         3.46229        -0.26178
C         14.76560         1.34497        -0.12983
C         14.74207         4.18281        -0.15345
C         13.51593         6.30945        -0.32034
C         13.52057         7.73990        -0.52460
C         14.74544         5.62134        -0.22657
C         14.75926         8.41977        -0.71705
C         13.45901        10.57223        -1.33246
C         13.43931        12.08503        -1.16132
C         14.75865         9.80731        -1.22202
C         14.72246        12.82320        -0.98548
C         13.48745        14.89679        -0.37283
C         13.45195        16.37064        -0.40523
C         14.74322        14.17989        -0.71193
C         14.68498        17.07783        -0.38556
C         13.44087        19.17023        -0.06523
C         14.68274        18.51307        -0.19793
C         15.98367         2.05036         0.01043
C         15.94628         3.47749         0.03743
C         17.24391         1.36358         0.03944
C         17.15668         4.24251         0.34843
C         15.98394         6.35460        -0.21521
C         15.98518         7.76505        -0.48633
C         17.20150         5.68673         0.05806
C         17.23158         8.50247        -0.42348
C         16.05199        10.58120        -1.17859
C         15.99238        12.08795        -1.26093
C         17.25600         9.90921        -0.62634
C         17.27822        12.82604        -1.06005
C         15.96165        14.96706        -0.69749
C         15.91290        16.37193        -0.53793
C         17.23113        14.28675        -0.78474
C         17.15596        17.17257        -0.60124
C         15.89713        19.23386        -0.07055
C         17.15841        18.60020        -0.17056
C         18.46422         2.03146         0.14392
C         18.46454         3.48117         0.43074
C         19.72273         1.39027        -0.00984
C         19.71379         4.24611         0.29826
C         18.43459         6.38370         0.10275
C         18.43902         7.80787        -0.09516
C         19.68279         5.68682         0.28981
C         19.65512         8.53693         0.05262
C         18.44697        10.64518        -0.39221
C         18.49910        12.08452        -0.63044
C         19.62743         9.94863        -0.02334
C         19.66822        12.79150        -0.50528
C         18.42360        14.96398        -0.69852
C         18.46105        16.43389        -0.67120
C         19.70274        14.23858        -0.81261
C         19.68970        17.08300        -0.11672
C         18.36153        19.28379        -0.00907
C         19.65198        18.58835         0.15871
C         20.93488         2.09549         0.09924
C         20.90425         3.53096         0.29530
C         22.18877         1.43799        -0.11959
C         22.14749         4.25890         0.55415
C         20.90385         6.41450         0.33907
C         20.90404         7.84441         0.29138
C         22.15687         5.72257         0.46989
C         22.12491         8.55221         0.43238
C         20.85183        10.68797         0.31803
C         20.88452        12.18258         0.05483
C         22.13588         9.97768         0.42389
C         22.19595        12.83680        -0.10794
C         20.99874        14.98768        -0.66541
C         20.98481        16.42659        -0.31867
C         22.23438        14.24004        -0.34492
C         22.15927        17.10813        -0.05030
C         20.94794        19.26432         0.13840
C         22.14915        18.55591         0.14014
C         23.41850         2.10126        -0.11013
C         23.47315         3.51138         0.33326
C         24.65260         1.47664        -0.41594
C         24.64643         4.32305         0.08185
C         23.37766         6.39875         0.53012
C         23.39143         7.85025         0.56177
C         24.63507         5.68977         0.39038
C         24.58143         8.54040         0.71096
C         23.32968        10.71281         0.51415
C         23.36027        12.09972         0.19912
C         24.57833        10.01874         1.00645
C         24.66606        12.74407        -0.00396
C         23.41825        14.97594        -0.20853
C         23.42243        16.39889        -0.08520
C         24.68853        14.25058        -0.21085
C         24.64601        17.09286         0.02827
C         23.41384        19.22164         0.23829
C         24.63609        18.53910         0.19176
C         25.86891         2.18663        -0.45064
C         25.85451         3.69877        -0.54602
C         27.10201         1.53416        -0.55068
C         27.13423         4.36983        -0.11017
C         25.87290         6.40362         0.47926
C         25.84570         7.79139         1.05965
C         27.10537         5.73965         0.28722
C         27.12088         8.56667         0.81962
C         25.88851        10.71206         0.69259
C         25.91342        12.07268         0.41791
C         27.12043         9.97299         0.79840
C         27.13559        12.82961         0.43950
C         25.92659        14.98652         0.05564
C         25.88665        16.38302         0.06179
C         27.13472        14.24627         0.29076
C         27.17513        17.13766        -0.11921
C         25.87371        19.22863         0.36746
C         27.11908        18.58551         0.30558
C         28.33899         2.23269        -0.46718
C         28.34705         3.66708        -0.20735
C         29.55392         1.53765        -0.51156
C         29.58360         4.34078         0.01665
C         28.35085         6.43808         0.50445
C         28.35320         7.85172         0.75333
C         29.57761         5.74500         0.34264
C         29.59110         8.54794         0.88930
C         28.36685        10.69163         0.79710
C         28.36344        12.11274         0.70417
C         29.60310         9.99216         0.96411
C         29.57651        12.81782         0.88102
C         28.33072        15.00688         0.54556
C         28.37280        16.39505         0.42220
C         29.52195        14.27755         0.99356
C         29.60260        17.13142         0.50804
C         28.33526        19.26256         0.46591
C         29.59132        18.57808         0.43024
C         30.79260         2.18818        -0.28822
C         30.81213         3.61067        -0.03601
C         32.00338         1.46389        -0.28051
C         32.04687         4.25235         0.20579
C         30.80538         6.44111         0.54122
C         30.80702         7.80390         0.85322
C         32.11428         5.75625         0.21646
C         32.07857         8.49168         1.17649
C         30.81805        10.72346         1.08305
C         30.81318        12.14090         1.05358
C         32.09375         9.99830         1.29735
C         32.06638        12.88301         1.00901
C         30.84954        15.03762         0.95520
C         30.83447        16.45540         0.58373
C         32.06991        14.24615         0.80419
C         32.06167        17.14593         0.38049
C         30.81366        19.26782         0.41684
C         32.05509        18.57849         0.34474
C         33.22247         2.07567         0.06160
C         33.23813         3.50432         0.30448
C         34.43341         1.31623         0.12929
C         34.44990         4.10096         0.78743
C         33.29581         6.33953         0.97410
C         33.36386         7.81501         0.94368
C         34.56153         5.55926         1.13357
C         34.56363         8.49332         0.91302
C         33.38450        10.67594         1.07305
C         33.35675        12.16023         1.36916
C         34.57734         9.95943         0.92988
C         34.63244        12.87099         0.92046
C         33.25043        14.95551         0.25722
C         33.28381        16.43851         0.19498
C         34.53701        14.19758         0.24510
C         34.49228        17.11817        -0.05868
C         33.30329        19.24327         0.29841
C         34.52268        18.57014         0.09739
C         35.59434         1.88976         0.64863
C         35.44917         3.22210         1.15740
C         36.91323         1.28671         0.60745
C         37.27331         4.26988         1.06487
C         35.84419         6.33221         0.96784
C         35.81435         7.74811         0.78383
C         37.08169         5.66724         0.76486
C         37.00714         8.45883         0.45037
C         35.83808        10.62309         0.68221
C         35.88686        12.09324         0.64331
C         37.00535         9.90332         0.35469
C         37.01651        12.76072        -0.03674
C         35.78309        14.93527         0.00888
C         35.69580        16.31510        -0.28610
C         36.98454        14.20301        -0.19670
C         36.87889        16.90950        -0.76706
C         35.73065        19.36769         0.23971
C         36.93882        19.05557        -0.38046
C         38.10181         1.99580         0.47615
C         38.16962         3.45139         0.41522
C         39.36220         1.28638         0.28600
C         39.25435         4.12551        -0.31062
C         38.21970         6.34157         0.23753
C         38.20801         7.75822         0.14187
C         39.36439         5.58938        -0.18068
C         39.40479         8.43645        -0.26506
C         38.19381        10.59036        -0.08693
C         38.15337        12.00623        -0.32454
C         39.39996         9.86413        -0.38076
C         39.32799        12.66788        -0.93552
C         38.17387        14.91756        -0.49270
C         38.14017        16.31840        -0.64081
C         39.36806        14.19940        -0.96175
C         39.38424        17.12711        -0.58410
C         38.28087        19.43252        -0.15710
C         39.40150        18.62780        -0.55624
C         40.50827         1.89685        -0.10557
C         40.53669         3.30685        -0.54588
C         41.77568         4.08227        -0.59776
C         40.56195         6.23600        -0.51410
C         40.58581         7.68501        -0.54785
C         41.76117         5.44348        -0.68091
C         41.76100         8.38823        -0.90434
C         40.60302        10.53370        -0.77374
C         40.61826        11.96918        -0.98656
C         41.76686         9.76724        -1.00471
C         41.75437        12.70386        -1.28815
C         40.65757        14.89430        -1.08349
C         40.70540        16.36466        -0.81666
C         41.77456        14.13106        -1.33606
C         41.84729        17.17761        -1.24361
C         40.65525        19.23783        -0.66541
C         41.81815        18.53922        -1.08992
O         20.47354        14.63778        -2.01077
O          8.18921        10.61569         1.65801
O         13.38171        11.42436        -2.49062
O         24.81112        13.31840        -1.35129
O         17.73830         3.86048         1.65071
O         22.90990         3.71295         1.67672
O         19.53095        17.56387         1.25065
O         39.02151        13.40601        -2.16139
O          8.98410        14.57146        -2.16159
O         32.05551         9.14477         2.49738
O          8.66484         2.69659         1.32980
O          5.77548        15.60452        -1.80497
O         16.77669        12.55161        -2.41516
O         15.59303         9.94084        -2.41550
O         12.83634        14.38045         0.86113
O          3.64555        17.01241        -1.23770
O         30.13788        14.79027         2.21560
O         10.22392         3.81215        -1.66495
O         17.90094        17.03907        -1.87904
O         36.80100        18.12062        -1.43454
O         10.76369         8.22649         1.32262
O         39.58916         3.60119        -1.62721
O         33.69863        14.22917        -0.96637
O         11.20551         9.95438        -2.13770
O         33.67894         5.84040         2.28904
O         20.66067        11.65889         1.41593
O         35.64160        12.81065         1.96542
O         36.43802         3.69773         2.03137
O          4.15341        10.30989         1.99873
O         40.21809        16.64844         0.53968
O         25.79682         7.61703         2.52629
H         25.54220         8.49892         2.89617
O          9.71429        17.36764        -2.35738
H          9.56091        16.48302        -2.76917
O         27.37391        17.19185        -1.58180
H         27.28776        16.27751        -1.92714
O         24.50159        10.10244         2.49785
H         23.57994         9.87762         2.75352
O          7.17337        19.00238        -1.95718
H          7.95249        18.58839        -2.39986
O          3.41559         7.62606         2.14577
H          3.59552         8.52835         2.51118
O         33.33292        12.20727         2.82806
H         34.27218        12.15987         3.12720
O         32.41009         6.14272        -1.17770
H         31.70518         5.76726        -1.74714
O          7.39444         8.23608         2.24397
H          8.03425         8.89460         2.60325
O         25.74881         3.98210        -1.99860
H         26.52368         3.56145        -2.42930
H          0.25515         1.56272        -0.90565
H          0.20327         4.00014        -0.58310
H          2.40739         0.30796        -0.82352
H          0.19876         5.89177        -0.37283
H          0.17271         8.29929        -0.19377
H          0.09877        10.18350         0.25944
H          0.12148        12.59883         0.50660
H          0.27312        14.46368         1.31518
H          0.43102        16.88822         1.73389
H          1.71032        19.01403         1.63264
H          4.84038         0.29614        -0.55351
H          3.79131        20.23858         1.18472
H          7.24646         0.26627        -0.51428
H          6.14086        20.25402         0.53016
H          9.82919         0.17144        -0.28128
H          8.57062        20.21208         0.35698
H         12.32589         0.20251        -0.17764
H         10.99353        20.21027         0.29017
H         14.78112         0.24494        -0.13589
H         13.42602        20.25571         0.11358
H         17.24277         0.27211        -0.10112
H         15.85292        20.31010         0.15361
H         19.74756         0.30904        -0.21263
H         18.33979        20.37404         0.14233
H         22.16831         0.36824        -0.37882
H         20.96898        20.36379         0.10002
H         24.66785         0.38921        -0.58947
H         23.42004        20.31327         0.37874
H         27.12537         0.43416        -0.58642
H         25.84326        20.30953         0.57726
H         29.54576         0.45069        -0.68133
H         28.33137        20.35288         0.62069
H         31.98165         0.38333        -0.48615
H         30.81344        20.36805         0.40931
H         34.43794         0.28104        -0.24213
H         33.31783        20.33968         0.39048
H         36.96126         0.19242         0.48655
H         35.66794        20.25357         0.89007
H         39.37877         0.21259         0.52775
H         38.50049        20.38429         0.35111
H         41.44964         1.32723        -0.14106
H         42.73517         3.54590        -0.54652
H         42.72543         5.96379        -0.76277
H         42.68651         7.84223        -1.12785
H         42.69765        10.26708        -1.30336
H         42.72230        12.19526        -1.39570
H         42.75077        14.61731        -1.47543
H         42.71915        16.68994        -1.70098
H         40.71792        20.32984        -0.55169
H         42.70895        19.12875        -1.35083
