         276
 CSIRO Nanostructure Databank - Neutral Graphene Oxide Data Set
C        -11.21709         0.59180         0.75224
C         -9.99808         1.49735         0.71604
C         -8.89664         0.80763        -0.07104
C         -7.61940         1.55747        -0.11246
C         -6.39098         0.81130         0.25116
C         -5.09003         1.46464        -0.05845
C         -3.82148         0.69563         0.10597
C         -2.55835         1.50122         0.23512
C         -1.28611         0.78311         0.57936
C          0.01731         1.50870         0.35177
C          1.30737         0.77455         0.31108
C          2.47140         1.38312        -0.46065
C          3.76146         0.81879         0.14590
C          5.01476         1.46273        -0.46713
C          6.21602         0.70822         0.14587
C          7.43498         1.50716         0.60290
C          8.71901         0.68785         0.64776
C          9.94415         1.45714         0.16329
C         11.22745         0.68293         0.36675
C        -10.14391         2.87736         0.11953
C         -8.95173         3.67143        -0.39850
C         -7.64141         2.89940        -0.27247
C         -6.38548         3.63427        -0.55211
C         -5.07275         2.98707        -0.08410
C         -3.82073         3.53787        -0.75307
C         -2.53749         2.82096        -0.50012
C         -1.28548         3.63776        -0.42106
C         -0.00738         2.93946        -0.11719
C          1.29134         3.59222        -0.44138
C          2.46378         2.90993        -0.37956
C          3.71563         3.71645        -0.05094
C          5.00803         2.93069        -0.08982
C          6.18549         3.48834         0.33933
C          7.48118         2.84620        -0.13474
C          8.72874         3.66768         0.17057
C          9.88537         2.94777         0.46532
C         -8.73245         5.04951         0.25150
C         -7.59543         5.79651         0.08234
C         -6.41729         5.13993        -0.61924
C         -5.06354         5.75106        -0.58702
C         -3.81933         5.02796        -1.07242
C         -2.50497         5.74572        -0.77657
C         -1.24722         4.99708        -1.13687
C         -0.01440         5.79837        -0.71891
C          1.28530         5.08660        -0.53960
C          2.52544         5.77468        -1.03964
C          3.82211         4.94280        -1.03944
C          5.01851         5.82279        -0.64757
C          6.41374         5.39241        -1.02603
C          7.57429         5.92811        -0.23383
C          8.68723         5.10016         0.14252
C         -7.45504         7.05698         0.87380
C         -6.60323         8.09834         0.58560
C         -4.90608         7.08185        -0.39961
C         -3.70123         7.39122         0.42919
C         -2.44607         7.01897        -0.27215
C         -1.28973         7.89981        -0.32467
C         -0.08007         7.28320        -0.95828
C          1.18546         8.05481        -1.08643
C          2.49774         7.27482        -1.21566
C          3.81495         8.05357        -1.18867
C          4.93709         7.31055        -0.43632
C          6.20840         8.09818        -0.02499
C          7.51276         7.30455        -0.05834
C         -6.12224         9.25318         1.34661
C         -4.94833         9.95510         1.18508
C         -3.77185         9.76141         0.29884
C         -2.46357         9.83104         0.77138
C         -1.27884         9.19140         0.17705
C          0.09167         9.85787         0.40050
C          1.15403         9.54385        -0.70935
C          2.53329        10.09225        -0.39351
C          3.70404         9.47609        -0.67810
C          5.00820        10.15923        -0.69513
C          6.18177         9.49905        -0.59190
C        -11.17414        -0.75697         0.57168
C         -9.99502        -1.50747         0.14555
C         -8.86633        -0.66428        -0.29093
C         -7.50166        -1.26210        -0.60408
C         -6.39752        -0.67799         0.27965
C         -5.10664        -1.44665         0.47005
C         -3.82859        -0.64802         0.82803
C         -2.50402        -1.40150         0.60747
C         -1.32173        -0.72217         0.59883
C         -0.01556        -1.43704         0.75523
C          1.29570        -0.71775         0.59775
C          2.55514        -1.50325         0.31138
C          3.81120        -0.72346         0.04680
C          4.96764        -1.39066        -0.70413
C          6.25921        -0.76756        -0.09647
C          7.62874        -1.40628        -0.32922
C          8.73046        -0.80928         0.56662
C         10.07052        -1.55307         0.64231
C         11.25936        -0.66389         0.31483
C         -9.92717        -2.87575        -0.01017
C         -8.74087        -3.58489        -0.46815
C         -7.50186        -2.79846        -0.72643
C         -6.19632        -3.53865        -0.65391
C         -5.04570        -2.88021         0.07384
C         -3.68900        -3.56941        -0.02783
C         -2.62003        -2.88702         0.94713
C         -1.24686        -3.76830         0.91662
C          0.04811        -2.95147         0.73529
C          1.28956        -3.68094         0.26190
C          2.51349        -2.92948        -0.08830
C          3.73163        -3.59468        -0.35603
C          4.93718        -2.88838        -0.52415
C          6.20154        -3.60732        -0.76644
C          7.57863        -2.94647        -0.51639
C          8.83606        -3.68549        -0.10141
C          9.98614        -2.97389         0.12507
C         -8.67996        -4.96723        -0.51160
C         -7.47432        -5.75541        -0.71576
C         -6.11386        -5.05901        -0.84227
C         -5.14634        -5.77452         0.11488
C         -3.80805        -5.05397         0.35113
C         -2.53677        -5.83548         0.52467
C         -1.29243        -5.10216         0.08462
C          0.03191        -5.83165         0.19604
C          1.21504        -5.15700         0.07785
C          2.55261        -5.85524         0.11829
C          3.64855        -5.10050        -0.68532
C          4.99984        -5.80969        -0.49991
C          6.08485        -5.07593        -0.83709
C          7.95078        -6.04430        -0.15939
C          8.84434        -5.10824         0.28685
C         -7.48628        -7.12854        -0.66155
C         -6.23775        -7.94265        -0.70553
C         -4.95852        -7.21297        -0.40018
C         -3.74768        -7.97065         0.11060
C         -2.47966        -7.16140        -0.18381
C         -1.20840        -7.94806        -0.04401
C         -0.02563        -7.28286         0.07902
C          1.22713        -8.03413        -0.20535
C          2.50418        -7.28992        -0.38667
C          3.79392        -8.07561        -0.36883
C          5.15332        -7.33625        -0.60892
C          6.29056        -7.88057         0.28112
C          7.52403        -7.28773         0.45525
C         -6.19692        -9.41144        -0.49944
C         -5.02158       -10.08059        -0.38221
C         -3.71302        -9.42005        -0.32186
C         -2.53472       -10.08728        -0.41471
C         -1.18529        -9.40152        -0.48845
C         -0.02407       -10.11289         0.17979
C          1.21601        -9.47246         0.19028
C          2.42200       -10.02447         0.67051
C          3.71987        -9.43099         0.32342
C          4.95992        -9.88927         0.97517
C          6.09427        -9.14816         0.97171
O         -3.80013         7.50691         1.64464
O         -3.28023        -5.45206         1.67187
O         -6.68276         0.06842         1.49325
O          5.94591        -0.26614         1.22211
O          1.69621        -7.62268        -1.54914
O          4.66496         6.40332         0.65849
O         -9.31038         0.27735        -1.35390
O         -1.54506        -5.26298        -1.39991
O          1.04054        -3.38401         1.70279
O         -2.08282         1.48529         1.60198
O          7.24031        -5.70142        -1.31026
O         -5.94964         7.96193        -0.64548
O         -6.53582         4.31325        -1.85556
O          3.60462        -1.31919         1.34833
O          3.33531        -5.16558        -2.03172
O          7.06741        -3.14563        -1.87691
O          0.93476         1.49217         1.50919
O          2.38438         6.38311        -2.37112
O          3.75141        -9.26997        -1.16566
O         -5.28317        -7.52607        -1.76017
O          8.57818        -0.13876         1.85510
O         -6.70602        -3.05699        -1.93452
O          0.31629         7.80875        -2.25868
O         -0.76614         3.70278         0.91648
O         -3.17571         2.76801        -1.80677
O         -3.10976        -2.91426         2.23338
O          0.74004        -0.95723         1.91649
O          6.60532         4.93241        -2.15284
O         -2.38547        -6.56426        -1.55875
O         -5.39628        -2.52703         1.43226
O          0.59183         5.67759         0.60852
O         -4.45962         0.75879        -1.18762
O          7.17278         1.90087         1.96984
H          7.00256         1.07144         2.47237
O          8.06944        -0.87952        -1.61304
H          7.72386        -1.46869        -2.32268
O         -7.11168        -0.72597        -1.88801
H         -7.77956        -0.98791        -2.55559
O          6.08384         8.33411         1.41429
H          5.75357         7.49376         1.81049
O         -4.99637         3.41703         1.30463
H         -4.33327         2.87437         1.78604
O         -5.81175        -5.86520         1.38935
H         -5.11170        -5.88164         2.08390
O          2.32942         0.96763        -1.82881
H          3.19996         1.12448        -2.27682
O         -1.14935         4.78543        -2.55399
H         -2.06705         4.66561        -2.90216
O         -3.99858         9.53089        -1.01881
H         -3.14449         9.42353        -1.48618
O         -5.56458        -5.21900        -2.15907
H         -6.03185        -4.59078        -2.75420
O          7.40653         2.54696        -1.54057
H          7.38627         3.39605        -2.04867
O         -1.11276        -4.32364         2.22974
H         -1.87449        -3.94952         2.75936
O          0.71958        10.29969        -1.87116
H          0.36845         9.64228        -2.52036
O          4.30418         8.14546        -2.55056
H          3.74518         7.55789        -3.10935
O          3.74551         1.21130         1.52895
H          3.61862         0.39505         2.07162
O          3.51511         4.23303         1.28962
H          3.25804         3.46482         1.85001
O         -3.89540        -0.36622         2.22962
H         -3.76312        -1.24885         2.67203
O         -3.80914        -8.01635         1.56252
H         -4.55124        -8.60406         1.81674
O         10.33898        -1.85692         2.05594
H          9.88852        -1.15149         2.58172
O          3.99021         4.37139        -2.33321
H          3.65799         5.01323        -2.99978
O          4.86648        -1.15873        -2.11783
H          5.41607        -1.83033        -2.57824
O         -3.92654         5.12303        -2.53169
H         -4.78019         4.69068        -2.77862
O          5.01357         1.29899        -1.89437
H          5.83628         1.73948        -2.22374
O          6.23290         4.43487         1.31050
H          5.30044         4.58144         1.62541
O         -9.49756         1.62486         2.07975
H        -10.17656         2.08579         2.61457
O         -0.85991        -9.41288        -1.91627
H         -0.08282        -8.82959        -2.07037
O         -3.29863        -3.36668        -1.38105
H         -2.83813        -4.15938        -1.75325
O          2.96767        -5.93602         1.50536
H          2.57844        -5.17846         1.99601
O         -9.24514         3.89376        -1.80226
H         -8.39224         4.14735        -2.23327
O         -0.04178        11.27151         0.47181
H         -0.00355        11.60053        -0.45450
O          9.76583         1.40781        -1.29723
H         10.52170         1.87482        -1.71036
O          5.52296        -7.63302        -1.96371
H          4.86623        -7.19758        -2.54982
H         12.23950        -1.16766         0.32480
H         12.17342         1.24525         0.29164
H         10.82233         3.48748         0.68518
H          9.58594         5.62745         0.50721
H          8.37011         7.81427         0.41431
H          7.13273        10.04505        -0.67922
H          5.00737        11.23951        -0.90928
H          2.55336        11.14500        -0.06932
H          0.46991         9.49923         1.39704
H         -2.31176        10.25113         1.77825
H         -4.75185        10.69040         1.98495
H         -6.73293         9.54371         2.21769
H         -8.08627         7.11665         1.77432
H         -9.55852         5.47622         0.84212
H        -11.11005         3.14440        -0.34273
H        -12.17347         1.04499         1.06039
H        -12.10103        -1.33345         0.72349
H        -10.80066        -3.48820         0.26479
H         -9.60351        -5.52979        -0.29454
H         -8.44337        -7.66326        -0.54621
H         -7.14439        -9.97166        -0.51036
H         -5.03251       -11.18050        -0.32999
H         -2.54616       -11.16246        -0.65622
H         -0.10285       -11.17481         0.46080
H          2.41210       -11.00888         1.16496
H          4.92758       -10.83312         1.53997
H          6.96603        -9.53612         1.52268
H          8.22473        -7.76707         1.16009
H          9.53190        -5.37358         1.10467
H         10.87592        -3.57011         0.39043
