         732
 CSIRO Nanostructure Databank - Neutral Graphene Oxide Data Set
C         23.28230        24.73063         2.95970
C         22.09344        25.46660         3.00346
C         23.27486        27.50415         2.18810
C         22.05640        26.82380         2.74412
C         23.25412        29.01934         2.21630
C         22.04313        29.72661         2.22196
C         23.21958        31.84826         1.96854
C         22.02022        31.11005         2.12303
C         23.20232        33.28864         1.89666
C         22.07087        34.04997         2.26707
C         23.34341        36.17378         2.25444
C         22.08405        35.43016         2.32958
C         23.37980        37.65602         2.20892
C         22.27901        38.43610         2.05867
C         23.51450        40.55593         2.22020
C         22.34129        39.88394         2.08007
C         23.63810        42.07041         2.37997
C         22.31977        42.78543         2.25954
C         23.33035        44.70887         1.11076
C         22.19926        43.99961         1.68732
C         23.21281        46.06019         0.65219
C         21.97103        46.75417         0.65056
C         23.06103        48.77255        -0.14074
C         21.90237        48.07324         0.24870
C         25.84292        23.29471         2.65322
C         25.83630        24.67935         2.78058
C         24.57687        25.41351         3.00514
C         25.81400        27.65270         2.41330
C         24.56175        26.92987         2.76472
C         25.74776        28.99896         2.13798
C         24.47613        29.73338         2.08449
C         25.74328        31.94652         1.95845
C         24.45590        31.13956         1.93159
C         25.65586        33.28509         1.27613
C         24.33927        34.00569         1.21383
C         25.66013        36.17483         1.03930
C         24.55412        35.42063         1.71546
C         25.59886        37.58087         1.15099
C         24.77251        38.24927         2.27279
C         25.94647        40.52029         1.55601
C         24.78644        39.79669         2.19648
C         25.82577        41.93912         1.12019
C         24.69471        42.66167         1.45037
C         25.71514        44.70180         0.48247
C         24.56618        44.03149         1.01243
C         25.62660        46.07609         0.17081
C         24.38686        46.76159         0.21587
C         25.52397        48.88760        -0.53069
C         24.30758        48.14920        -0.15784
C         25.49479        50.26705        -0.81584
C         28.23911        23.23205         2.11934
C         27.02446        22.57675         2.43080
C         28.26840        24.65501         2.06553
C         27.11320        25.39790         2.61882
C         28.26855        27.52187         1.77689
C         27.11165        26.92653         2.47372
C         28.29568        28.98933         1.72403
C         27.00436        29.76721         1.96960
C         28.05653        31.78024         0.96877
C         26.94618        31.16030         1.51327
C         28.03521        33.21490         0.67243
C         26.79220        33.95866         0.83593
C         27.94798        35.95407        -0.05842
C         26.74183        35.38163         0.49876
C         28.01926        37.28338        -0.52872
C         26.41271        38.44019         0.36549
C         28.07017        40.32574         0.16120
C         26.83538        39.70834         0.70835
C         28.05102        41.79312        -0.05776
C         26.92930        42.54242         0.39158
C         28.06780        44.58928        -0.34211
C         26.91942        43.95351         0.20968
C         28.13506        46.06158        -0.33670
C         26.85997        46.83126        -0.10383
C         27.96886        48.92089        -0.89402
C         26.77675        48.23117        -0.56088
C         27.91721        50.33162        -1.05093
C         26.67759        50.97909        -1.01161
C         30.69951        20.41077         1.87208
C         29.53564        21.10192         2.11188
C         30.57025        23.16304         1.28040
C         29.44236        22.49081         1.83633
C         30.48978        24.56053         1.03215
C         29.37454        25.32189         1.47860
C         30.45410        27.46668         0.68396
C         29.34451        26.77552         1.31432
C         30.43993        28.83891         0.47842
C         29.33407        29.65634         0.93003
C         30.20912        31.59588        -0.35564
C         29.22360        30.99820         0.61522
C         30.37640        33.09185        -0.16909
C         29.19801        33.84511         0.23473
C         30.38618        35.92640        -0.44297
C         29.19048        35.25219        -0.07709
C         30.41427        37.31633        -0.61828
C         29.19771        38.02810        -0.60282
C         30.28891        40.23315        -1.15464
C         29.19582        39.51510        -0.43191
C         30.33916        41.69854        -1.10717
C         29.16113        42.43188        -0.67124
C         30.26092        44.50540        -1.60545
C         29.15657        43.84693        -0.80606
C         30.33729        46.00545        -1.43928
C         29.27506        46.73929        -0.99320
C         30.37230        48.86906        -1.50860
C         29.23188        48.19825        -1.09763
C         30.31414        50.35377        -1.79989
C         29.23596        51.08232        -0.99379
C         30.39088        53.20472        -1.65904
C         29.23916        52.54443        -1.38805
C         33.24958        19.00057         1.59727
C         33.03331        20.28944         1.06483
C         31.83096        21.03682         1.27136
C         32.86015        23.08926         0.28993
C         31.75111        22.42141         0.91893
C         32.85843        24.46907         0.08013
C         31.58998        25.19401         0.28501
C         32.86184        27.36798        -0.15801
C         31.57889        26.69026         0.11277
C         32.84564        28.76912        -0.30433
C         31.59429        29.51263        -0.10204
C         32.78824        31.61030        -0.68614
C         31.52798        30.85125        -0.36439
C         32.45626        32.89597        -1.43611
C         31.49272        33.72401        -0.63490
C         32.73722        35.83976        -1.36402
C         31.71420        35.20230        -0.42395
C         32.88421        37.27865        -1.28142
C         31.72889        38.05908        -0.64829
C         32.82187        40.23238        -1.28974
C         31.59346        39.44802        -1.27349
C         32.81164        41.62218        -1.36267
C         31.55944        42.36695        -1.35551
C         32.80425        44.50140        -1.59020
C         31.59409        43.80047        -1.45657
C         32.83606        45.93591        -1.74105
C         31.54295        46.67325        -2.04981
C         32.82047        48.80414        -1.76338
C         31.60171        48.15145        -1.74562
C         32.88520        50.26913        -1.56386
C         31.63165        51.06064        -1.54496
C         32.89275        53.17625        -1.90958
C         31.68122        52.53486        -1.75353
C         33.01755        54.61035        -1.72941
C         35.46242        18.82975         0.52578
C         34.39104        18.27816         1.30221
C         35.34304        20.12998         0.03556
C         34.06411        20.83488         0.17524
C         35.15430        22.97387        -0.94580
C         33.95692        22.27596        -0.28212
C         35.18710        24.46155        -0.71587
C         34.03633        25.16995        -0.41024
C         35.21269        27.34166        -0.82825
C         34.03713        26.63629        -0.47088
C         35.22062        28.75313        -0.96637
C         33.99496        29.42780        -0.77727
C         35.10862        31.52211        -1.65144
C         33.82284        30.75719        -1.43241
C         34.84560        32.84209        -2.14382
C         33.70528        33.59881        -1.87022
C         35.55470        36.13450        -2.21450
C         33.61215        35.01763        -2.06635
C         35.38508        37.41008        -1.65457
C         34.07574        38.00002        -1.41973
C         35.32102        40.22923        -0.90022
C         34.04826        39.44964        -1.02715
C         35.29212        41.68840        -1.14541
C         34.06160        42.36631        -1.35088
C         35.29838        44.47543        -1.61785
C         34.06093        43.77843        -1.51575
C         35.31110        45.92646        -1.69179
C         34.04666        46.63109        -1.73243
C         35.26804        48.79354        -1.63052
C         34.06965        48.08316        -1.76112
C         35.30684        50.24260        -1.77338
C         34.15608        50.96388        -1.83533
C         35.43957        53.11343        -1.95169
C         34.14813        52.39994        -2.30361
C         35.47071        54.59628        -2.22825
C         34.19668        55.26899        -1.77169
C         37.91883        15.96170         0.49696
C         36.75849        16.67076         0.64767
C         37.85472        18.71147        -0.09971
C         36.69829        18.07196         0.34762
C         37.79294        20.07981        -0.64477
C         36.46455        20.81705        -0.63515
C         37.69874        22.98011        -0.86584
C         36.49501        22.29586        -0.69762
C         37.71865        24.42191        -1.04519
C         36.42352        25.12247        -1.18016
C         37.71497        27.36434        -1.20740
C         36.43345        26.63372        -1.23994
C         37.69533        28.79179        -1.25507
C         36.43580        29.49885        -1.26070
C         37.65274        31.71618        -1.17782
C         36.37509        30.91358        -1.50183
C         37.81946        33.16452        -1.66082
C         36.82700        33.96275        -2.22219
C         37.87838        36.01447        -1.47077
C         36.75363        35.37499        -2.03252
C         37.83772        37.42127        -1.26550
C         36.59736        38.11305        -1.30004
C         37.80503        40.20922        -0.96815
C         36.60471        39.51361        -1.06257
C         37.80224        41.70725        -0.76476
C         36.51116        42.38216        -1.19877
C         37.80095        44.44749        -1.72857
C         36.51536        43.75393        -1.51377
C         37.80275        45.95686        -1.77351
C         36.50765        46.64664        -1.65599
C         37.70988        48.77880        -1.32834
C         36.52391        48.08279        -1.52505
C         37.63786        50.24004        -0.96900
C         36.64882        50.93466        -1.91212
C         37.78306        53.11152        -1.18901
C         36.57723        52.42506        -1.64900
C         37.82241        54.53020        -1.19686
C         36.72448        55.27735        -1.72932
C         38.00256        57.32142        -1.46220
C         36.84200        56.64794        -1.88202
C         40.41963        14.46316         0.15470
C         40.35920        15.88043         0.06638
C         39.15211        16.59853         0.13680
C         40.26218        18.72039        -0.55000
C         39.11422        18.02365        -0.15045
C         40.25727        20.14595        -0.73472
C         39.02756        20.87024        -0.71768
C         40.19609        23.01511        -0.94482
C         38.97857        22.27519        -0.85088
C         40.18152        24.44868        -1.06354
C         38.91145        25.15278        -1.11845
C         40.15459        27.32988        -1.24209
C         38.91665        26.61539        -1.20352
C         40.14718        28.74979        -1.36622
C         38.94262        29.49980        -1.35970
C         40.15886        31.65715        -1.18694
C         38.96535        30.95236        -1.32989
C         40.21360        33.10170        -0.99373
C         39.01577        33.84511        -1.25867
C         40.27970        35.95129        -0.94841
C         39.06345        35.26368        -1.23105
C         40.29303        37.37940        -0.92787
C         39.06031        38.11036        -1.04526
C         40.29991        40.23207        -0.94040
C         39.04647        39.51911        -0.99143
C         40.29633        41.62476        -1.06483
C         39.01836        42.29547        -1.48252
C         40.23437        44.49404        -1.19540
C         39.06379        43.78847        -1.37875
C         40.23231        45.95224        -1.18476
C         39.05391        46.64174        -1.41392
C         40.25710        48.85307        -0.98401
C         39.01541        48.10973        -1.39616
C         40.13960        50.27863        -0.58790
C         38.95894        50.96499        -0.84470
C         40.07489        53.08793        -0.22360
C         38.93077        52.39259        -0.75350
C         40.04641        54.49413        -0.09372
C         38.97741        55.21809        -0.68522
C         40.18372        57.36624        -0.27810
C         39.04836        56.64252        -0.84509
C         40.30167        58.76245        -0.46000
C         42.79763        14.46604        -0.42022
C         41.58955        13.77795        -0.08428
C         42.85558        15.83099        -0.44009
C         41.65831        16.66344         0.00312
C         42.75180        18.76272        -0.88122
C         41.50398        17.92060        -0.87185
C         42.72062        20.13639        -1.00071
C         41.46890        20.86563        -0.90616
C         42.66549        23.01650        -0.90199
C         41.44525        22.29713        -0.92927
C         42.65662        24.45707        -0.98714
C         41.39717        25.16988        -1.12807
C         42.63372        27.31768        -1.20804
C         41.40814        26.60981        -1.21406
C         42.68514        28.73399        -1.24359
C         41.43339        29.45176        -1.51406
C         42.70689        31.61596        -0.93412
C         41.45673        30.98478        -1.39071
C         42.64181        32.99896        -0.30721
C         41.41692        33.77850        -0.72777
C         42.70891        35.92554        -0.59066
C         41.47235        35.20776        -0.73416
C         42.73557        37.34569        -0.63527
C         41.51503        38.07578        -0.77573
C         42.75037        40.22147        -0.81431
C         41.53090        39.51235        -0.82017
C         42.73344        41.65212        -0.85095
C         41.49792        42.35989        -0.95772
C         42.68033        44.49782        -0.75084
C         41.48604        43.78889        -0.97518
C         42.65805        45.93419        -0.59499
C         41.45410        46.65474        -0.81452
C         42.56658        48.71526        -0.07519
C         41.44360        48.05833        -0.60792
C         42.43978        50.13429         0.33661
C         41.28323        50.95869        -0.07922
C         42.46147        53.06803         0.55405
C         41.25539        52.34414         0.14596
C         42.43098        54.46188         0.80623
C         41.05856        55.17943         0.81588
C         41.86173        57.51820         1.41249
C         41.08030        56.69498         0.58939
C         41.94450        58.90734         1.28839
C         41.18805        59.52608         0.29219
C         45.32964        15.88977        -1.21461
C         44.11211        16.56513        -0.70868
C         45.16351        18.73947        -1.64731
C         44.05242        18.05231        -0.88922
C         45.18722        20.20825        -1.30723
C         43.97367        20.87577        -1.12393
C         45.12240        23.02165        -0.94254
C         43.93177        22.31388        -0.96756
C         45.09582        24.44358        -0.47549
C         43.86083        25.15143        -0.94015
C         45.13012        27.32639        -0.84219
C         43.93279        26.57767        -1.37412
C         45.11890        28.71283        -0.85148
C         43.89792        29.45480        -1.06889
C         45.10509        31.57143        -0.27013
C         43.87824        30.89325        -0.86858
C         45.14624        33.07746        -0.41417
C         43.94098        33.77544        -0.45879
C         45.17349        35.90999        -0.40349
C         43.94232        35.19968        -0.48847
C         45.19470        37.35487        -0.45071
C         43.98153        38.06445        -0.57538
C         45.21661        40.20326        -0.75781
C         44.00298        39.50068        -0.70892
C         45.18734        41.64930        -1.23063
C         43.94226        42.39090        -0.82555
C         45.15447        44.52282        -0.47641
C         43.92412        43.78750        -0.70213
C         45.09717        45.90828        -0.15478
C         43.84700        46.62170        -0.21208
C         44.99653        48.70491         0.51179
C         43.79051        48.01469         0.10029
C         44.98192        50.13453         0.68887
C         43.70678        50.87481         0.71237
C         44.92930        53.02678         0.75332
C         43.69595        52.34695         0.65091
C         44.92067        54.43270         0.99973
C         43.66308        55.09767         1.19959
C         44.95330        57.00314         2.12729
C         43.75050        56.34260         1.88861
C         46.44567        16.59319        -1.54551
C         47.68384        18.76963        -1.53046
C         46.49459        18.03723        -1.52760
C         47.66859        20.22116        -1.40370
C         46.43658        20.89391        -1.31587
C         47.68871        23.09962        -0.99178
C         46.39685        22.36039        -1.23064
C         47.64044        24.50255        -0.51704
C         46.38354        25.21211        -0.61569
C         47.55212        27.33735        -0.18337
C         46.33993        26.59499        -0.57157
C         47.65381        28.75753        -0.50214
C         46.40933        29.44633        -0.85379
C         47.68478        31.61725        -0.42436
C         46.40637        30.94164        -0.72474
C         47.66842        33.03941        -0.28126
C         46.39534        33.76868        -0.30596
C         47.61897        35.93615        -0.00071
C         46.38013        35.18020        -0.25072
C         47.65658        37.39572        -0.23684
C         46.43811        38.08183        -0.41583
C         47.69561        40.20645        -0.53924
C         46.45510        39.51040        -0.59026
C         47.74173        41.67470        -0.71741
C         46.47030        42.43733        -0.96873
C         47.59016        44.52115        -0.13836
C         46.39629        43.84823        -0.50890
C         47.54452        45.90095         0.22937
C         46.29509        46.59895         0.20857
C         47.41916        48.64313         1.08267
C         46.20902        47.97875         0.58358
C         47.41086        50.17566         1.15651
C         46.16442        50.87619         0.82435
C         47.41413        53.00675         0.90585
C         46.17064        52.29970         0.81607
C         47.41313        54.42258         0.98513
C         46.15937        55.12158         1.19352
C         46.15381        56.42937         1.71007
C         50.13413        18.81683        -1.51849
C         48.96673        18.11760        -1.59540
C         50.15154        20.23689        -1.28896
C         48.92071        20.93317        -1.23019
C         50.12237        22.97069        -0.51427
C         48.93946        22.32485        -0.87873
C         50.06575        24.34545         0.11754
C         48.82444        25.12852        -0.21659
C         50.11308        27.30199        -0.09743
C         48.84514        26.57206         0.05828
C         50.09912        28.67878        -0.20873
C         48.86279        29.42854        -0.37400
C         50.13796        31.58187        -0.27581
C         48.88771        30.88743        -0.40965
C         50.14009        33.00835        -0.25777
C         48.89671        33.71640        -0.23496
C         50.13982        35.93476        -0.38603
C         48.91586        35.17417        -0.01796
C         50.14235        37.39965        -0.15884
C         48.89064        38.09568        -0.18777
C         50.15507        40.24078        -0.14109
C         48.90740        39.52688        -0.28836
C         50.16841        41.68566        -0.09678
C         48.93434        42.41581        -0.25909
C         50.08693        44.57927        -0.01290
C         48.84803        43.79853        -0.12739
C         49.99908        45.93573         0.53610
C         48.76846        46.58617         0.62355
C         49.88998        48.73455         1.19018
C         48.72793        47.98268         0.98427
C         49.89657        50.17399         1.17058
C         48.68753        50.88849         1.05437
C         49.90509        53.01828         0.93301
C         48.66782        52.30216         0.93923
C         49.85404        54.44180         0.87948
C         48.65260        55.11529         0.93439
C         52.64338        20.30833        -1.29235
C         51.38714        20.93969        -1.08780
C         52.61163        22.98059        -0.39643
C         51.37826        22.30183        -0.64628
C         52.61013        24.35304         0.25152
C         51.34624        25.14506        -0.02245
C         52.60511        27.26557         0.07505
C         51.35256        26.51830        -0.07830
C         52.58322        28.63771         0.10590
C         51.40434        29.39823        -0.44886
C         52.55546        31.59103         0.07990
C         51.37074        30.88069        -0.13463
C         52.58831        33.01525         0.01968
C         51.38583        33.70329        -0.20555
C         52.68174        35.87783        -0.19398
C         51.42871        35.15454        -0.44792
C         52.62421        37.36037        -0.32423
C         51.34956        38.09370        -0.13662
C         52.61748        40.22499         0.24414
C         51.37063        39.52663        -0.03027
C         52.59742        41.66642         0.42123
C         51.37828        42.36336         0.15505
C         52.60166        44.54327         0.61099
C         51.41315        43.83051         0.10061
C         52.53489        45.91303         0.88847
C         51.21514        46.55028         1.06436
C         52.43749        48.79091         1.39967
C         51.16628        48.04086         1.40206
C         52.38579        50.19918         1.41106
C         51.14445        50.89192         1.23002
C         52.41296        52.98733         0.91096
C         51.13880        52.30539         1.05002
C         53.82142        20.98513        -1.08145
C         55.10825        23.03534        -0.43640
C         53.83342        22.32903        -0.61192
C         55.10893        24.44489        -0.18205
C         53.87650        25.13470         0.00334
C         55.10168        27.23182         0.23550
C         53.86382        26.52270         0.15158
C         55.06607        28.64598         0.64767
C         53.76749        29.38548         0.57725
C         55.08138        31.61233         0.44018
C         53.78740        30.88633         0.50292
C         55.05476        33.05687         0.39446
C         53.84119        33.73950         0.20235
C         55.02884        35.94707         0.66587
C         53.82148        35.18895         0.15228
C         55.16402        37.34089         0.07798
C         53.90270        38.13027        -0.14851
C         55.04321        40.15890         0.82272
C         53.82560        39.52811         0.30236
C         55.01903        41.67725         1.04508
C         53.78530        42.39280         0.69612
C         55.01195        44.53465         1.11401
C         53.81193        43.81868         0.77470
C         54.95621        45.93299         1.26189
C         53.71877        46.65489         1.18291
C         54.91588        48.86080         1.30876
C         53.66162        48.07696         1.36536
C         54.91507        50.28720         1.65094
C         53.59683        51.00821         1.82588
C         53.58360        52.37662         1.19456
C         57.54037        23.10533        -0.61346
C         56.33296        22.39040        -0.61515
C         57.56646        24.48187        -0.41872
C         56.34318        25.17034        -0.18698
C         57.57838        27.34757         0.02523
C         56.32941        26.58317         0.05824
C         57.55984        28.74246         0.16211
C         56.34890        29.44971         0.57105
C         57.54941        31.62782         0.49328
C         56.28288        30.92399         0.44028
C         57.53648        33.06065         0.67237
C         56.31344        33.77778         0.56780
C         57.55190        35.89739         0.84711
C         56.33236        35.18772         0.63129
C         57.58661        37.32012         0.89104
C         56.41653        38.07289         0.41801
C         57.51999        40.20274         1.01221
C         56.35900        39.51513         0.69019
C         57.49466        41.65242         1.09344
C         56.31266        42.38611         1.03766
C         57.48067        44.52320         1.38697
C         56.29099        43.83140         1.16575
C         57.48186        45.92291         1.82022
C         56.16410        46.65936         1.70051
C         57.45030        48.85616         1.87084
C         56.24059        48.12214         1.45075
C         57.35173        50.22129         2.01267
C         56.09937        50.91303         1.93341
C         60.05845        24.54282         0.03178
C         58.86974        25.22862        -0.58912
C         60.06266        27.39718        -0.10502
C         58.81623        26.68411        -0.20221
C         60.06254        28.81992        -0.05757
C         58.76047        29.55823        -0.21609
C         60.02269        31.52047         0.93587
C         58.74384        30.92976         0.40879
C         59.99816        33.03277         1.00209
C         58.77623        33.75140         0.88527
C         59.99076        35.86875         1.29988
C         58.77947        35.17294         1.01348
C         59.98777        37.31578         1.41009
C         58.77803        38.04045         1.17031
C         59.98154        40.17516         1.44554
C         58.77701        39.48011         1.17860
C         60.02181        41.63283         1.40024
C         58.78923        42.34753         1.03351
C         60.01317        44.55681         1.61743
C         58.77995        43.88574         1.16521
C         59.98325        46.00557         1.83262
C         58.74626        46.69964         1.84144
C         59.92915        48.80159         2.16157
C         58.71083        48.11213         1.99130
C         61.21425        25.24922         0.24185
C         61.26173        26.65246         0.06449
C         61.24850        29.61663        -0.09133
C         61.23066        30.93815         0.24960
C         61.17020        33.72959         1.31390
C         61.17272        35.11555         1.46029
C         61.16004        38.04618         1.70118
C         61.15495        39.43014         1.72254
C         61.15736        42.37341         1.66356
C         61.15335        43.79549         1.76429
C         61.17732        46.73687         1.99633
C         61.14266        48.11794         2.17201
O         30.69467        39.59695        -2.41000
O         35.81003        33.40138        -2.98104
O         27.44780        26.29551         3.74859
O         34.51184        35.59800        -2.98401
O         33.45162        21.21559        -1.15629
O         47.12808        23.01534        -2.35670
O         56.10543        37.57844        -0.98965
O         50.96676        44.41264        -1.18233
O         47.25544        49.34744         2.35715
O         55.74345        48.50340         0.13298
O         39.92167        48.70815        -2.42260
O         36.25301        25.83100        -2.46375
O         41.53475        30.32233        -2.69268
O         55.81745        28.93172         1.85936
O         31.13711        25.82073        -0.99210
O         47.40190        42.18576        -2.07993
O         48.32085        35.56573         1.25912
O         32.26149        50.69450        -0.27384
O         44.43708        17.51908         0.42238
O         29.23800        39.89110         0.99195
O         26.83719        37.93801        -0.87349
O         36.95281        20.16248        -1.86127
O         25.88665        40.34183         3.02515
O         53.36298        37.88443        -1.49036
O         37.88921        45.16094        -3.01598
O         46.44500        30.33135        -2.04856
O         50.69836        35.55113        -1.67909
O         54.85689        40.74840         2.16593
O         48.01708        27.00885         1.18650
O         56.64491        46.22415         3.00718
O         27.99750        29.57922         3.04366
O         53.52651        30.18527         1.78761
O         42.60463        56.91699         2.44974
O         34.61326        39.76516         0.30711
O         42.78222        50.34577         1.74532
O         27.85224        46.64446         0.98181
O         24.56285        26.43658         4.10457
O         24.40101        35.58344         3.12582
O         51.07139        47.03107         2.45518
O         58.91599        43.22256        -0.13400
O         37.96250        41.97792         0.65107
H         37.22393        41.54584         1.13013
O         25.98145        32.23427         3.38467
H         26.35250        31.42431         3.79769
O         34.10734        52.32290        -3.77867
H         34.91469        51.83438        -4.05799
O         33.37535        32.02796         0.57114
H         33.67772        31.22808         1.05096
O         31.75951        32.58568        -2.68637
H         32.28458        31.88246        -3.14597
O         40.54364        54.97649         2.16995
H         41.13908        55.47373         2.77613
O         60.11596        31.05488         2.33885
H         59.31791        31.37629         2.81058
O         34.97123        22.84990        -2.38463
H         34.50407        21.99378        -2.53639
O         33.27916        30.44985        -2.76478
H         33.88540        29.81052        -3.19692
O         37.05928        50.29494         0.37165
H         36.98374        51.23775         0.63196
O         25.37679        37.88380         3.52281
H         26.02315        38.59171         3.75027
O         44.78017        18.65356        -3.06202
H         45.44374        19.15451        -3.58196
O         58.64264        29.80327        -1.68258
H         58.65217        28.92658        -2.12426
O         54.73857        36.20374         2.08610
H         54.68604        35.33844         2.54521
O         37.47916        31.88771         0.27955
H         38.28887        32.32261         0.62557
O         29.97272        50.49430        -3.20142
H         30.49094        49.84086        -3.71657
O         49.92731        24.07399         1.57376
H         49.60772        24.90093         1.99798
O         32.09048        38.28345         0.73775
H         32.28226        37.39817         1.13063
O         44.95454        24.33170         1.00957
H         44.10638        23.86892         1.18558
O         42.48925        32.76178         1.13462
H         43.27381        32.22947         1.41893
O         41.92144        17.07416         1.37230
H         42.87694        17.33428         1.41291
O         24.10554        42.30286         3.73982
H         24.93125        41.77119         3.84983
O         35.49276        54.72238        -3.68869
H         34.81498        54.09177        -4.03672
O         44.15787        26.52194        -2.84252
H         44.09318        27.44113        -3.18200
O         37.10938        50.80340        -3.28245
H         37.53215        49.92240        -3.38275
O         45.03931        41.54025        -2.68425
H         45.95549        41.55820        -3.05397
O         23.35318        27.14789         0.75490
H         22.51603        27.43412         0.33195
O         41.34902        17.43931        -2.24725
H         41.26243        18.22001        -2.83423
O         53.45428        51.22088         3.27633
H         52.57620        51.63130         3.42742
O         59.12623        25.21939        -2.05427
H         60.03184        25.57447        -2.18511
O         29.88129        44.30322        -3.03054
H         29.93167        43.33868        -3.21011
O         52.62270        24.10068         1.69925
H         51.70285        23.82952         1.94845
O         23.95279        34.13930        -0.19989
H         23.91638        33.24106        -0.59066
O         29.63836        51.01437         0.39878
H         28.94748        51.44558         0.94229
O         32.27566        35.38573         0.92690
H         31.75377        34.83252         1.54668
O         38.81391        41.98778        -2.89539
H         39.45556        42.51073        -3.42062
O         29.59839        31.38656        -1.66822
H         30.20777        31.82043        -2.32353
O         45.00335        31.32104         1.17835
H         45.73482        31.80334         1.62118
O         51.60939        29.35950        -1.91418
H         50.83725        29.79831        -2.33219
O         31.38298        46.58541        -3.51303
H         30.91786        45.73179        -3.69765
H         23.23466        23.63511         3.00698
H         21.15117        24.93543         3.20679
H         21.08893        27.34241         2.75803
H         21.08752        29.19303         2.30994
H         21.05128        31.62586         2.13325
H         21.13683        33.53271         2.53243
H         21.15257        35.97159         2.54751
H         21.28336        37.97699         1.97073
H         21.38847        40.42725         2.01716
H         21.44636        42.33760         2.75534
H         21.21425        44.48691         1.69029
H         21.05013        46.24449         0.96199
H         22.95766        49.82593        -0.43224
H         20.93478        48.59413         0.24412
H         24.91391        22.72561         2.79009
H         24.54560        50.81853        -0.81990
H         26.97337        21.48090         2.42962
H         26.61976        52.06860        -1.14409
H         30.73988        19.34247         2.12030
H         28.68444        20.56992         2.55619
H         30.34351        54.28208        -1.87897
H         28.29805        53.11500        -1.36380
H         32.49736        18.54350         2.25404
H         32.11218        55.16907        -1.44796
H         34.49794        17.27514         1.73375
H         34.21678        56.35106        -1.57286
H         37.90675        14.88412         0.70726
H         35.84844        16.13865         0.95380
H         38.04890        58.40800        -1.60884
H         36.02914        57.22285        -2.34587
H         39.50245        13.88568         0.33644
H         39.66210        59.27509        -1.18927
H         43.68283        13.86355        -0.67004
H         41.59805        12.67981        -0.05233
H         42.59286        59.48232         1.96112
H         41.25151        60.61161         0.13814
H         45.35420        14.79180        -1.24837
H         44.94414        57.96438         2.65645
H         47.35195        16.03082        -1.81499
H         47.09531        56.96335         1.89149
H         51.08116        18.26523        -1.58159
H         49.00949        17.02801        -1.72463
H         50.78428        55.02440         0.84753
H         48.66224        56.21372         0.92941
H         52.69002        19.27268        -1.65293
H         52.42423        54.01416         0.51869
H         54.76586        20.46287        -1.28094
H         54.53311        52.91400         1.05754
H         58.47322        22.56037        -0.81341
H         56.37748        21.30861        -0.79589
H         58.23345        50.81770         2.28423
H         56.09687        51.98119         2.19421
H         60.04052        23.45575         0.19171
H         59.93484        49.89314         2.27804
H         62.12342        24.72725         0.57488
H         62.21690        27.17698         0.19638
H         62.19690        29.15795        -0.41292
H         62.14801        31.53806         0.16560
H         62.11053        33.17875         1.45440
H         62.12132        35.61390         1.69887
H         62.10357        37.52322         1.90546
H         62.09462        39.95247         1.94460
H         62.10607        41.86655         1.88647
H         62.09843        44.27379         2.05611
H         62.14782        46.22396         1.98145
H         62.08063        48.67480         2.30332
