         200
 CSIRO Nanostructure Databank - Neutral Graphene Oxide Data Set
C        -11.10689         0.64908         0.01788
C         -9.88080         1.40176         0.13530
C         -8.64118         0.64897         0.12726
C         -7.40765         1.33665         0.25637
C         -6.17512         0.65475         0.14653
C         -4.92694         1.38374         0.03399
C         -3.70156         0.66646        -0.24238
C         -2.46101         1.40749        -0.38110
C         -1.20089         0.68344        -0.55187
C         -0.02252         1.38624        -0.75121
C          1.24950         0.71523        -1.04694
C          2.52987         1.44976        -0.86800
C          3.75231         0.68396        -0.74991
C          4.99482         1.39705        -0.59253
C          6.22942         0.66613        -0.46756
C          7.52584         1.41416        -0.67241
C          8.74234         0.66179        -0.20911
C          9.95389         1.40461         0.01496
C         11.17659         0.65757         0.19798
C         -9.88007         2.79506         0.22263
C         -8.67591         3.54864         0.41210
C         -7.43847         2.76445         0.58118
C         -6.10969         3.52262         0.51050
C         -4.92580         2.77459         0.08828
C         -3.73108         3.51640        -0.32905
C         -2.46274         2.78822        -0.36962
C         -1.18535         3.55538        -0.14318
C         -0.02653         2.85990        -0.80909
C          1.27479         3.60622        -0.88950
C          2.52834         2.83265        -0.81956
C          3.81262         3.61115        -0.89476
C          4.99542         2.79165        -0.47513
C          6.20314         3.46296         0.02067
C          7.49702         2.82003        -0.14431
C          8.67608         3.51980         0.11168
C          9.92348         2.79675         0.10521
C         -8.61639         4.94015         0.45757
C         -7.37053         5.67402         0.48088
C         -6.16567         4.98130         0.38260
C         -4.87945         5.69301         0.35962
C         -3.70224         5.00749        -0.24114
C         -2.40853         5.74238        -0.25014
C         -1.22295         5.04934        -0.38942
C          0.05271         5.74752        -0.43674
C          1.27331         5.04889        -0.53475
C          2.50829         5.73778        -0.37417
C          3.74684         5.02261        -0.34036
C          4.92086         5.69979        -0.00945
C          6.16948         4.95606         0.27277
C          7.45761         5.67388         0.31681
C          8.63947         4.94448         0.33670
C         -7.34525         7.12954         0.46452
C         -6.18020         7.86500         0.39467
C         -4.86848         7.18773         0.38883
C         -3.64233         7.89815        -0.05292
C         -2.46686         7.18995        -0.28033
C         -1.20698         7.90096        -0.54345
C          0.06297         7.17575        -0.38940
C          1.27094         7.88092        -0.23927
C          2.49985         7.15387        -0.15900
C          3.72694         7.83875         0.07853
C          4.93436         7.11334         0.16944
C          6.19436         7.79756         0.38847
C          7.40079         7.10122         0.40575
C         -6.13068         9.31176         0.34805
C         -4.95126         9.99051         0.25381
C         -3.66113         9.34242         0.04680
C         -2.48264        10.06553         0.03679
C         -1.20373         9.44786        -0.32370
C          0.08121        10.04058         0.04239
C          1.26798         9.32197        -0.01367
C          2.52538         9.97078         0.24391
C          3.72189         9.27279         0.26655
C          4.98728         9.93083         0.49487
C          6.15854         9.23216         0.54145
C        -11.11190        -0.71534        -0.05274
C         -9.88817        -1.48437        -0.03321
C         -8.64290        -0.76163         0.02804
C         -7.40719        -1.48018         0.01904
C         -6.16862        -0.76299         0.01658
C         -4.93425        -1.46606        -0.10385
C         -3.70022        -0.73874        -0.25031
C         -2.45911        -1.46952        -0.37611
C         -1.21570        -0.76091        -0.52922
C         -0.00603        -1.47339        -0.59236
C          1.26022        -0.79815        -0.91949
C          2.53110        -1.47628        -0.61865
C          3.75143        -0.73608        -0.61366
C          4.97957        -1.44545        -0.37999
C          6.22747        -0.72590        -0.36555
C          7.47086        -1.45725        -0.21194
C          8.71863        -0.72829        -0.12881
C          9.94990        -1.45894         0.09015
C         11.17510        -0.70608         0.21704
C         -9.88021        -2.87507        -0.05877
C         -8.65624        -3.62017        -0.02139
C         -7.40661        -2.89905        -0.00159
C         -6.16987        -3.61204         0.00302
C         -4.93774        -2.88587        -0.08819
C         -3.70715        -3.60681        -0.19355
C         -2.46276        -2.87435        -0.33360
C         -1.21640        -3.59103        -0.31449
C          0.01908        -2.87754        -0.38579
C          1.26281        -3.56976        -0.29244
C          2.51316        -2.85462        -0.34921
C          3.73982        -3.56753        -0.15485
C          4.97377        -2.85146        -0.18761
C          6.21113        -3.57215        -0.02151
C          7.45807        -2.84844        -0.05633
C          8.70162        -3.57846         0.09962
C          9.92989        -2.84334         0.16240
C         -8.64137        -5.01857        -0.00200
C         -7.41843        -5.76022         0.09565
C         -6.15912        -5.03181         0.08568
C         -4.92266        -5.74033         0.07826
C         -3.71618        -5.00701        -0.12898
C         -2.46141        -5.77556        -0.43768
C         -1.19781        -4.99461        -0.19215
C          0.02888        -5.67085        -0.01507
C          1.26537        -4.96453        -0.06781
C          2.48832        -5.68885         0.09806
C          3.72498        -4.97669         0.05271
C          4.95699        -5.68500         0.22692
C          6.20011        -4.96333         0.17692
C          7.45213        -5.70269         0.27180
C          8.68234        -4.96524         0.21114
C         -7.41218        -7.14595         0.16571
C         -6.17084        -7.90970         0.52265
C         -4.89062        -7.17115         0.22312
C         -3.67170        -7.88402         0.28971
C         -2.45255        -7.12268         0.22425
C         -1.23767        -7.62315         0.64597
C          0.03070        -7.06725         0.30495
C          1.22837        -7.83382         0.32514
C          2.46979        -7.10677         0.23799
C          3.71419        -7.80142         0.31477
C          4.93398        -7.08674         0.38675
C          6.19037        -7.82819         0.76915
C          7.44458        -7.07662         0.42696
C         -6.12162        -9.31621        -0.01390
C         -4.94613        -9.96139        -0.14683
C         -3.65962        -9.33974         0.16745
C         -2.52000       -10.14555         0.06555
C         -1.21083        -9.73587         0.47914
C          0.06066       -10.09029         0.03751
C          1.23951        -9.28058         0.24184
C          2.50604        -9.92186         0.12919
C          3.71302        -9.23596         0.23398
C          4.99603        -9.91641         0.13073
C          6.16356        -9.26448         0.31400
O         -6.67884         3.06852         1.79461
O         -4.00066         4.39607        -1.54243
O          4.01937         3.85060        -2.35223
H          3.82994         3.00942        -2.82179
O          1.23566        -0.13869        -2.24071
O         -4.59034         6.39128         1.61925
O         -2.49450        -6.02732        -1.89609
H         -2.51414        -5.15305        -2.34097
O         -1.23092        -8.74431         1.48583
O         -1.22573         8.83015        -1.66025
O          5.99564         4.02063         1.39781
O          0.43001         3.36374        -2.09300
O          6.18696        -7.89047         2.25293
H          6.16833        -6.96522         2.57884
O         -0.89472         3.42022         1.29684
H         -1.63047         3.83178         1.79859
O         -6.22326        -8.04936         2.00160
H         -6.23125        -7.14204         2.37490
O          7.67094         1.53544        -2.14598
H          7.77447         0.62680        -2.50160
H         12.11510        -1.25979         0.35812
H         12.11673         1.21357         0.32874
H         10.85844         3.34829         0.28501
H          9.59707         5.47666         0.44365
H          8.34209         7.66103         0.51766
H          7.10895         9.76112         0.70686
H          4.99079        11.02312         0.62573
H          2.52807        11.05839         0.41227
H          0.09859        11.08557         0.38801
H         -2.49566        11.13298         0.30558
H         -4.96127        11.09061         0.27811
H         -7.07507         9.86951         0.43731
H         -8.31000         7.65987         0.48643
H         -9.55321         5.51514         0.39692
H        -10.83775         3.33508         0.16500
H        -12.05805         1.20197         0.00368
H        -12.06653        -1.25767        -0.12338
H        -10.83336        -3.42450        -0.09103
H         -9.59274        -5.57131        -0.01894
H         -8.36856        -7.69133         0.15937
H         -7.07006        -9.83244        -0.22492
H         -4.93000       -11.00904        -0.48602
H         -2.64319       -11.15139        -0.36804
H          0.18804       -11.02138        -0.53688
H          2.52686       -11.01502         0.00069
H          4.99111       -10.98617        -0.12963
H          7.12100        -9.80011         0.22789
H          8.40297        -7.61328         0.50639
H          9.63062        -5.51428         0.31187
H         10.86999        -3.39616         0.30926
