         349
 CSIRO Nanostructure Databank - Neutral Graphene Oxide Data Set
C          1.37225         3.41390         0.40843
C          0.17888         4.09992         0.52591
C          1.29810         6.24577         0.15816
C          0.13661         5.50173         0.40003
C          1.27446         7.69584        -0.01877
C          0.10188         8.44421         0.17200
C          1.18933        10.54500        -0.41462
C          0.08828         9.85379         0.03056
C          1.15376        12.00070        -0.65933
C         -0.08238        12.79150        -0.40408
C          1.30761        14.54958         0.66638
C         -0.02070        13.98876         0.19432
C          1.25193        16.04168         0.96414
C          0.17369        16.54091         1.70035
C          1.13049        18.76179         1.56709
C          0.12228        17.89275         2.01589
C          1.04288        21.09131         1.00785
C         -0.17018        21.86483         0.86605
C          0.98787        23.56838        -0.46710
C         -0.23052        23.00956         0.14078
C          1.05665        25.05578        -0.80337
C         -0.12611        25.93966        -0.64652
C          1.18133        28.05070        -0.85351
C         -0.07528        27.29029        -0.69966
C          1.27782        29.48614        -0.49195
C          3.80909         3.43701         0.04773
C          2.58566         4.12007         0.16806
C          3.75001         6.27350        -0.16754
C          2.54702         5.55378         0.04252
C          3.71791         7.69973        -0.32413
C          2.48444         8.37985        -0.33614
C          3.71361        10.58161        -0.48915
C          2.44628         9.80991        -0.82199
C          3.70547        11.98436        -0.40269
C          2.45461        12.75003        -0.67201
C          3.65886        14.93755        -0.05891
C          2.36126        14.26740        -0.44156
C          3.60309        16.27461         0.26118
C          2.31866        16.90512         0.60513
C          3.42753        19.13955         0.32485
C          2.26855        18.30196         0.87877
C          3.48252        20.66922         0.50576
C          2.24387        21.44901         0.43430
C          3.52719        23.55473         0.11456
C          2.26799        22.78686        -0.24532
C          3.61623        25.00348        -0.33189
C          2.41159        25.74115        -0.78185
C          3.63986        27.93785        -0.21319
C          2.45783        27.24654        -0.80135
C          3.74209        29.40971        -0.37300
C          2.47687        30.12298        -0.39842
C          6.22710         3.43730        -0.36815
C          5.02570         4.12907        -0.15722
C          6.19670         6.30571        -0.36700
C          5.00483         5.58524        -0.22880
C          6.18334         7.72974        -0.41234
C          4.95523         8.42647        -0.40980
C          6.15945        10.58146        -0.21845
C          4.93784         9.87068        -0.36815
C          6.12211        11.99037        -0.07608
C          4.90621        12.68475        -0.13724
C          6.13645        14.87463         0.38746
C          4.82127        14.09383         0.40396
C          6.11253        16.35666         0.55755
C          4.80537        17.06578         0.53115
C          5.98800        19.19658         1.00825
C          4.74551        18.42758         0.61833
C          5.97314        20.65103         0.56146
C          4.70534        21.31149         0.33592
C          6.03002        23.50260         0.19771
C          4.78095        22.73987        -0.20229
C          6.01738        24.91236         0.17445
C          4.79861        25.65516        -0.10020
C          6.16707        27.82997         0.03527
C          4.86550        27.13333         0.03672
C          6.21216        29.27069        -0.15131
C          4.97692        30.01169        -0.30762
C          8.57284         3.47173        -1.03852
C          7.45829         4.12847        -0.59627
C          8.68729         6.33254        -0.81144
C          7.51814         5.58905        -0.21015
C          8.66504         7.79079        -0.69786
C          7.43236         8.46138        -0.45227
C          8.65776        10.56426        -0.22335
C          7.42491         9.86961        -0.29060
C          8.62989        11.96498         0.33525
C          7.41065        12.73984        -0.14825
C          8.63751        15.04357        -0.07818
C          7.39207        14.24085        -0.12614
C          8.59680        16.46229         0.01653
C          7.34433        17.13404         0.29323
C          8.47392        19.24508         0.70447
C          7.28435        18.50561         0.56895
C          8.39378        20.65836         1.20007
C          7.16450        21.36070         0.65301
C          8.46933        23.49159         0.50575
C          7.22508        22.79176         0.45896
C          8.44407        24.89077         0.28128
C          7.23865        25.63282         0.26465
C          8.64580        27.78398         0.37039
C          7.31380        27.07726         0.16596
C          8.68448        29.19287        -0.17172
C          7.45197        29.90775        -0.26323
C         11.07974         3.54081        -0.91019
C          9.82705         4.17130        -1.47463
C         11.05598         6.40199        -1.52853
C          9.79662         5.67073        -1.23782
C         11.05740         7.93034        -1.52238
C          9.84299         8.53561        -0.86057
C         11.13621        10.64576        -0.54580
C          9.86744         9.91776        -0.54102
C         11.15640        12.02189        -0.25272
C          9.92422        12.73489         0.15055
C         11.13263        14.73504        -0.67221
C          9.88730        14.24133        -0.09766
C         11.09011        16.86752        -0.37650
C          9.77606        17.30092         0.03308
C         10.96747        19.29288         0.84390
C          9.72803        18.61644         0.54117
C         10.94453        20.65886         1.10073
C          9.69400        21.39528         1.00234
C         10.98000        23.43574         1.01857
C          9.70815        22.76397         0.78432
C         11.39576        24.54906         0.28489
C          9.59191        25.62136        -0.20357
C         11.00181        27.54123        -0.84026
C          9.77912        26.95882        -0.16543
C         11.16661        29.03853        -0.51993
C          9.91948        29.76479        -0.44601
C         13.51334         3.55523        -0.58315
C         12.28007         4.20993        -0.89767
C         13.58787         6.39179        -1.06549
C         12.33471         5.64381        -1.30189
C         13.56866         7.82843        -1.06023
C         12.35667         8.56102        -1.06487
C         13.60603        10.69422        -0.74261
C         12.37128         9.97022        -0.81443
C         13.61430        12.06542        -0.45710
C         12.37999        12.74829        -0.27408
C         13.60564        15.05311        -0.55873
C         12.35873        14.17920        -0.41873
C         13.50502        16.34247         0.37177
C         12.27104        17.24010         0.20560
C         13.52131        19.31728         0.73385
C         12.25150        18.50635         1.03637
C         13.51552        20.76574         1.14006
C         12.16120        21.34734         1.48478
C         13.95697        23.82818         1.42985
C         11.99926        22.69744         1.71369
C         13.77100        25.13683         0.80149
C         12.49913        25.45705         0.30006
C         13.85867        28.02054         0.21573
C         12.24204        26.53849        -0.78547
C         13.66914        29.21060        -0.65172
C         12.33790        29.76711        -0.68180
C         15.97839         3.56571        -0.42936
C         14.74020         4.23021        -0.62510
C         16.02877         6.34939        -0.84252
C         14.76922         5.66768        -0.84067
C         15.95028         7.72012        -1.23126
C         14.82250         8.51850        -1.09394
C         16.02995        10.63295        -0.23819
C         14.92097        10.04304        -1.13853
C         16.06598        12.11450        -0.07217
C         14.84404        12.84616        -0.25189
C         15.97537        14.96671         0.36606
C         14.80892        14.23444        -0.14012
C         15.99574        16.44553         0.32579
C         14.80277        17.16755         0.36275
C         16.03221        19.34622         0.62323
C         14.80575        18.58081         0.57902
C         16.08379        20.66572         1.07829
C         14.84731        21.44495         1.55541
C         16.21513        23.57500         0.70395
C         14.93900        22.93152         1.11435
C         16.22815        25.03556         0.34387
C         14.96381        25.81221         0.33205
C         16.03421        27.58480        -1.07036
C         14.97086        27.10737        -0.11601
C         16.08538        29.10013        -1.15777
C         14.81662        29.79433        -1.15940
C         18.39909         3.53809        -0.02616
C         17.19838         4.25748        -0.33084
C         18.47743         6.36372        -0.10228
C         17.25286         5.69392        -0.48433
C         18.53272         7.80091         0.14291
C         17.69845         8.64477        -0.51208
C         18.52393        10.66774         0.48868
C         17.31647         9.94261         0.05548
C         18.51372        12.07441         0.37002
C         17.29055        12.76720         0.17630
C         18.57077        14.97317         0.42089
C         17.28874        14.21966         0.47486
C         18.56615        16.38303         0.31885
C         17.28720        17.13333         0.15123
C         18.61320        19.40568         0.13290
C         17.28102        18.64995         0.16862
C         18.69419        20.59300         1.10093
C         17.39648        21.43354         1.24568
C         18.66024        23.41733         0.03637
C         17.39002        22.70965         0.38488
C         18.69767        24.91581        -0.10053
C         17.41350        25.64549        -0.31191
C         18.57935        27.57270        -1.36204
C         17.36380        26.89857        -0.83334
C         18.54178        29.04365        -1.49902
C         17.27712        29.73449        -1.42232
C         19.57296         4.19792         0.25538
C         20.78894         6.32814         0.77025
C         19.60508         5.61942         0.29433
C         20.77037         7.62865         1.14048
C         19.47196         8.41192         1.18282
C         20.71047        10.69248         1.51492
C         19.61163         9.93091         0.97851
C         20.79903        12.04196         1.32632
C         19.85177        12.75369         0.38574
C         20.99811        14.96546         0.49551
C         19.78683        14.25914         0.49978
C         21.00515        16.34815         0.45956
C         19.80101        17.09159         0.37141
C         21.04746        19.20872         0.62944
C         19.84532        18.53470         0.40228
C         21.12166        20.60734         0.66520
C         19.94393        21.38935         0.67043
C         21.12682        23.36104        -0.29925
C         19.94899        22.71833         0.23503
C         21.13945        24.64861        -0.74601
C         19.98864        25.54957        -0.53465
C         21.11484        27.76966        -1.19804
C         19.93455        26.89595        -1.21251
C         20.99959        29.09569        -1.50079
C         19.72889        29.73180        -1.66690
O          1.64649        22.79553        -1.54122
O         17.12628         8.29174        -1.73614
O         19.56244        25.57439         0.87999
O         13.41214        20.38001        -0.27379
O          5.96519        19.22714         2.43348
O         17.17113        17.93976        -1.10944
O         16.58041        24.60008         1.71255
O         10.57594        24.83772        -0.82793
O         13.18631        27.89162         1.24443
O         10.16438        13.65505         1.25981
O         11.80326         5.87614        -2.68852
O         12.98392        23.43646         2.35889
O         16.19856         9.89773         1.02690
O          3.95784        27.53495         1.16455
O         19.21164        26.86751        -2.49147
O         11.09572        15.91283        -1.41327
O          1.99825        27.78751        -2.06034
O         10.70333        27.58677        -2.26203
O          7.40327        13.48523        -1.41498
O          6.37373        15.45059         1.71827
O          1.82745        12.36036        -1.95073
O          0.91766        20.07673         1.94856
O          1.82016        25.25158        -2.02611
O         17.81878        22.71763        -0.98751
O         16.49473        14.48953         1.67738
O         17.45057        21.96252         2.60024
H         16.55396        21.89413         3.01833
O          8.22880        20.56574         2.65174
H          7.36475        20.05974         2.80167
O          8.81755        27.89525         1.82248
H          8.07582        28.43509         2.16872
O         14.85247        21.43822         3.01471
H         14.17823        22.09616         3.30826
O         13.79060        15.46232        -1.92419
H         12.93954        15.84845        -2.23349
O         18.93393         8.25075         2.52308
H         18.78876         7.29291         2.67068
O         12.91465        26.47839        -1.79884
H         11.53627        27.33298        -2.73160
O          3.41821        23.64264         1.56836
H          4.23838        24.05466         1.91630
O          2.40721         9.71372        -2.29137
H          2.27929        10.63796        -2.61927
O         20.41910        12.53482        -0.96817
H         20.50968        11.56559        -1.09252
O         15.60571        27.13911        -2.39783
H         16.33538        27.32946        -3.02522
O         10.94177         8.33917        -2.92834
H         11.42273         7.65563        -3.45112
O          7.78890         5.60366         1.23731
H          7.03761         5.15350         1.67906
O         13.36817        15.78343         1.69866
H         13.21728        16.53355         2.32544
O          3.29581        19.05501        -1.13851
H          3.07281        18.12741        -1.37128
O         18.76495        19.93355        -1.19945
H         18.38627        19.26714        -1.81821
O          8.41566        11.80307         1.76460
H          8.90862        12.52878         2.21478
O         18.95697        20.00955         2.38793
H         18.64660        20.67313         3.05347
O          1.67322        13.83245         1.86182
H          2.64879        13.94631         2.01206
O          4.83835        22.60945        -1.64764
H          5.51625        21.93968        -1.87345
O          4.47509        13.84457         1.81686
H          4.98542        14.51884         2.33907
O          1.89207        14.90202        -1.64861
H          1.61536        14.18092        -2.26344
O         15.24270        10.46720        -2.48686
H         14.52412        10.17014        -3.08299
O         12.35574        18.18703         2.46744
H         11.46045        17.94823         2.79070
O          9.89775         3.96490        -2.92387
H         10.66776         4.50008        -3.23996
H          1.39875         2.31884         0.50144
H         -0.75471         3.55081         0.71178
H         -0.83707         6.00289         0.48471
H         -0.82954         7.94875         0.47577
H         -0.83847        10.39643         0.26802
H         -1.04460        12.38051        -0.74715
H         -0.94196        14.57044         0.35045
H         -0.62271        15.86655         2.04310
H         -0.71514        18.30589         2.59260
H         -1.06929        21.48265         1.36928
H         -1.17467        23.57041         0.08987
H         -1.10305        25.46541        -0.47045
H         -1.00030        27.86662        -0.54159
H          0.34386        30.06209        -0.40419
H          3.82291         2.33906         0.11648
H          2.50155        31.21329        -0.24896
H          6.20681         2.34065        -0.46077
H          5.04789        31.10697        -0.39564
H          8.51597         2.39033        -1.24108
H          7.47906        30.97714        -0.52547
H         11.06110         2.46581        -0.67322
H          9.96124        30.85249        -0.62953
H         13.49348         2.48082        -0.34809
H         12.24444        30.86190        -0.79264
H         15.97803         2.47237        -0.30373
H         14.77331        30.80038        -1.60847
H         18.35637         2.44032         0.02101
H         17.28882        30.82855        -1.54999
H         20.47913         3.63266         0.51711
H         21.72226         5.74968         0.85771
H         21.68105         8.09043         1.55106
H         21.46648        10.17959         2.12769
H         21.64360        12.60043         1.75601
H         21.94871        14.41549         0.51360
H         21.97523        16.85913         0.46629
H         21.99153        18.65552         0.72113
H         22.11374        21.08030         0.64350
H         22.04533        22.76726        -0.40658
H         22.04107        25.05157        -1.22987
H         22.08812        27.34421        -0.91389
H         21.89989        29.72621        -1.52278
H         19.70246        30.82177        -1.81027
