         244
 CSIRO Nanostructure Databank - Neutral Graphene Oxide Data Set
C          1.51369         1.96464        -0.59109
C          1.44671         3.35974        -0.46586
C          2.68711         1.29070        -0.30012
C          2.54566         4.11259        -0.01689
C          1.40470         6.29435        -0.44207
C          1.39245         7.69066        -0.48730
C          2.46917         5.55434         0.08751
C          2.45763         8.48704        -0.00622
C          1.39732        10.65573        -0.68024
C          1.44763        11.99954        -0.88584
C          2.48806         9.88650        -0.13603
C          2.71340        12.78566        -0.67898
C          1.39678        14.97906        -0.64505
C          1.36222        16.38788        -0.58673
C          2.56667        14.27340        -0.40954
C          2.53092        17.12498        -0.36067
C          2.53865        18.56579        -0.42925
C          3.82902         2.00748         0.14544
C          3.76550         3.42424         0.32018
C          5.04421         1.32447         0.41660
C          4.92799         4.11946         0.77788
C          3.54681         6.28024         0.77963
C          3.55967         7.80634         0.72917
C          4.82771         5.56473         1.09241
C          4.88015         8.50745         0.77724
C          3.60283        10.63080         0.49239
C          3.60336        12.13395         0.36512
C          4.87682         9.92878         0.74319
C          4.85937        12.88430         0.70262
C          3.76681        14.99055        -0.03804
C          3.75406        16.43815        -0.08417
C          4.92169        14.31995         0.37124
C          4.95797        17.16729         0.06995
C          3.70284        19.26854        -0.33092
C          4.96294        18.59557        -0.13116
C          6.18430         2.01846         0.77725
C          6.14191         3.43228         0.95014
C          7.44937         1.26855         1.11038
C          7.43136         4.14636         1.17310
C          6.12614         6.38251         1.18975
C          6.08959         7.80142         0.82318
C          7.44214         5.66011         1.16676
C          7.32115         8.47614         0.28374
C          6.13122        10.63595         0.77444
C          6.12610        12.11671         0.96172
C          7.32208         9.95487         0.56883
C          7.43008        12.86269         0.95231
C          6.12564        15.08780         0.87692
C          6.18457        16.49198         0.33568
C          7.43940        14.33730         0.73012
C          7.40306        17.16036         0.20377
C          6.17079        19.28271        -0.14557
C          7.41367        18.58676        -0.04943
C          8.69011         2.03704         0.72442
C          8.67747         3.44748         0.77757
C          9.87517         1.35372         0.46557
C          9.86820         4.19423         0.55281
C          8.67579         6.37560         0.75764
C          8.64745         7.79630         0.56425
C          9.85815         5.64392         0.62591
C          9.84805         8.51272         0.33090
C          8.53843        10.69851         0.08271
C          8.66827        12.08662         0.66310
C          9.84666         9.94207         0.14899
C          9.89669        12.82026         0.32122
C          8.61862        15.00080         0.51241
C          8.65334        16.43966         0.26481
C          9.93884        14.27873         0.70161
C          9.85541        17.09868        -0.01161
C          8.62943        19.25225        -0.19805
C          9.86835        18.53640        -0.25401
C         11.06902         2.06519         0.19316
C         11.04690         3.48163         0.19998
C         12.30070         1.36493        -0.01177
C         12.24911         4.21289        -0.26106
C         11.17376         6.37728         0.68470
C         11.11157         7.83556         0.28969
C         12.28312         5.68018        -0.05595
C         12.29091         8.50333        -0.07316
C         11.02420        10.65090        -0.05371
C         11.02630        12.11635        -0.03418
C         12.28555         9.94836        -0.23619
C         12.26191        12.83530        -0.25918
C         11.12892        14.98343         0.12117
C         11.10869        16.37262        -0.09875
C         12.30461        14.22386        -0.13203
C         12.31576        17.05818        -0.44757
C         11.03460        19.19973        -0.59041
C         12.29824        18.47829        -0.94429
C         13.51861         2.02144        -0.18416
C         13.59425         3.50650        -0.46822
C         14.73589         1.33348        -0.24383
C         14.68050         4.20559         0.42561
C         13.59207         6.38185        -0.04857
C         13.55160         7.80320        -0.21894
C         14.77611         5.67201         0.02177
C         14.76162         8.48059        -0.48787
C         13.43977        10.62731        -0.59811
C         13.42194        12.08953        -0.76618
C         14.72507         9.91353        -0.96573
C         14.74521        12.85652        -0.99339
C         13.61853        14.94303         0.00263
C         13.55167        16.41616        -0.35356
C         14.78711        14.24711        -0.61403
C         14.77068        17.13790        -0.25814
C         13.55533        19.23097        -0.58995
C         14.75112        18.61088        -0.28532
C         15.97519         2.03780        -0.26529
C         16.03677         3.38463         0.48269
C         17.11411         1.34638        -0.62110
C         17.34961         4.22986         0.19043
C         16.01668         6.35873        -0.23805
C         15.98969         7.78999        -0.50749
C         17.19749         5.64542        -0.30783
C         17.23771         8.51877        -0.61668
C         15.95067        10.71141        -0.46171
C         16.07213        12.09839        -1.14370
C         17.25042         9.93719        -0.57215
C         17.27747        12.83074        -0.57177
C         16.05511        15.01434        -0.82687
C         15.96832        16.36662        -0.16449
C         17.28028        14.22054        -0.42529
C         17.07490        16.83651         0.52006
C         15.96446        19.41838        -0.21407
C         17.10040        18.99166         0.46009
C         18.37008         2.04566        -0.91218
C         18.38776         3.52471        -0.69720
C         19.66395         1.34334        -0.97969
C         19.70889         4.19452        -0.63087
C         18.43217         6.31622        -0.86080
C         18.47672         7.80033        -0.59633
C         19.72005         5.59297        -0.54552
C         19.70299         8.45233        -0.46466
C         18.45700        10.66103        -0.49226
C         18.46183        12.07054        -0.39457
C         19.78788         9.95335        -0.63855
C         19.78484        12.79368        -0.30211
C         18.45352        14.89965         0.04405
C         18.37921        16.28068         0.44184
C         19.66769        14.20918         0.20733
C         19.53822        17.05268         0.73365
C         18.46454        19.36663         0.36372
C         19.55150        18.51245         0.70941
C         20.84024         2.00691        -0.84980
C         20.90414         3.44721        -0.66825
C         22.12516         4.14309        -0.52596
C         20.94069         6.27911        -0.37839
C         20.92070         7.73306        -0.24944
C         22.13771         5.52043        -0.34761
C         22.04593         8.43328         0.22856
C         20.89653        10.59669         0.17900
C         20.87240        11.99304         0.38076
C         22.00359         9.79667         0.51906
C         21.91617        12.70833         1.00881
C         20.79525        14.87942         0.73331
C         20.77905        16.33494         0.87621
C         21.91512        14.09403         1.12134
C         21.96864        17.04054         1.09351
C         20.81623        19.15574         0.87003
C         21.97874        18.44563         1.09731
O          5.35865         5.99112         2.37185
O         16.88835        17.92649         1.36886
O         11.93007         5.14981        -1.37617
O          5.29777        12.57871         2.08259
O          7.62352         4.89824         2.41632
O         13.82161        12.55006        -2.12057
O          3.00767        11.54455         1.52429
O          8.27655        12.33030         2.06044
O          3.09585         7.10579         1.91079
O         18.06388         3.03966        -2.01769
O          7.48422         1.03233         2.53370
H          7.43820         1.90157         2.98484
O         16.36433        11.98290        -2.54519
H         15.63109        11.45967        -2.95117
O          5.91719        15.23391         2.32463
H          5.73311        14.32454         2.67158
O         14.79660         9.84715        -2.42186
H         14.00407         9.36631        -2.74056
O         16.18357         2.88839         1.83734
H         15.39415         3.18653         2.35280
O         11.61318         6.32676         2.09476
H         10.87957         6.67148         2.64857
O         18.05541         4.41752         1.45108
H         17.60176         3.83271         2.11239
O         15.72629        10.99958         0.94162
H         15.77953        10.15954         1.44365
O          7.20032         8.38156        -1.23070
H          6.29291         8.68401        -1.45637
O         10.18270        14.28646         2.15933
H          9.50049        13.68403         2.55239
O         14.12779         4.21264         1.77463
H         13.57875         5.01696         1.91270
O         18.28624         6.22014        -2.32725
H         19.01415         6.74022        -2.73039
O         16.15302        15.24353        -2.27905
H         16.24808        14.35904        -2.70220
O          3.49606        12.68495        -1.92059
H          2.98908        13.13195        -2.63090
O         20.24763        12.92554        -1.71230
H         21.08978        13.42960        -1.69199
O         13.99608         3.64655        -1.83916
H         13.41233         4.33272        -2.24242
O          8.29016        10.92577        -1.34905
H          8.11676        10.03056        -1.73438
O         20.17872        10.13965        -2.04269
H         20.19770        11.11833        -2.20394
O         13.87934        14.90345         1.46695
H         13.03375        15.12386         1.91782
O         12.31593        18.41424        -2.42991
H         13.11742        17.90771        -2.68478
H          0.62860         1.41058        -0.93317
H          0.50082         3.86018        -0.71066
H          2.75145         0.19995        -0.41849
H          0.55739         5.76888        -0.90308
H          0.53097         8.17815        -0.96338
H          0.47046        10.12656        -0.94608
H          0.57603        12.49983        -1.33212
H          0.47008        14.44561        -0.89916
H          0.41690        16.91304        -0.78369
H          1.58542        19.08749        -0.59926
H          5.07796         0.22972         0.31501
H          3.70210        20.36447        -0.42406
H          7.44648         0.26468         0.61783
H          6.18023        20.37250        -0.29705
H          9.88967         0.25429         0.48035
H          8.63690        20.33755        -0.37902
H         12.29643         0.26755         0.07673
H         11.00036        20.28589        -0.76787
H         14.74231         0.23448        -0.32334
H         13.53697        20.32413        -0.72019
H         17.02315         0.28927        -0.92129
H         15.98788        20.35578        -0.78962
H         19.65329         0.24611        -1.06520
H         18.71478        20.37627         0.00221
H         21.78819         1.44847        -0.87213
H         23.07306         3.58615        -0.55026
H         23.10475         6.02930        -0.23263
H         22.96188         7.87947         0.47605
H         22.87307        10.24815         1.01738
H         22.76336        12.15729         1.44112
H         22.77424        14.57445         1.60840
H         22.91866        16.50443         1.21985
H         20.84917        20.25453         0.83886
H         22.92711        18.97922         1.25051
