         424
 CSIRO Nanostructure Databank - Neutral Graphene Oxide Data Set
C          1.26539         2.21350         0.36554
C          1.27727         3.60691         0.43277
C          2.45467         1.48649         0.40113
C          2.49162         4.32059         0.56396
C          1.36415         6.56423         0.58063
C          1.42709         7.93328         0.73204
C          2.53163         5.76475         0.66685
C          2.64902         8.59005         1.05696
C          1.51088        10.77818         1.34609
C          1.51855        12.15300         1.49305
C          2.69902        10.01998         1.30798
C          2.74281        12.86516         1.62484
C          1.54062        15.09470         1.72112
C          1.54720        16.44416         1.87589
C          2.75482        14.31004         1.72583
C          2.81066        17.17553         2.24142
C          2.82670        18.63176         1.86364
C          3.69625         2.14972         0.51787
C          3.71344         3.58572         0.62778
C          4.91438         1.41477         0.45208
C          4.95431         4.27504         0.74050
C          3.77645         6.42526         0.87578
C          3.82469         7.82270         1.12346
C          4.99585         5.66502         0.83624
C          5.09696         8.43303         1.66640
C          3.96523        10.68745         1.50714
C          3.94573        12.11806         1.67538
C          5.16637         9.94222         1.53756
C          5.21331        12.84833         1.81480
C          3.99296        15.01000         1.68962
C          4.03330        16.43562         1.76229
C          5.21789        14.29256         1.54667
C          5.23029        17.11911         1.53315
C          3.97679        19.27189         1.57424
C          5.24848        18.56703         1.47332
C          6.16668         2.04355         0.48411
C          6.25374         3.51074         0.85302
C          7.36277         1.35225         0.26268
C          7.33152         4.20820         0.02882
C          6.26988         6.38469         0.82488
C          6.33303         7.72651         1.14539
C          7.45365         5.66060         0.41384
C          7.69002         8.39747         1.26484
C          6.50998        10.56910         1.88141
C          6.52597        12.09513         1.77322
C          7.64324         9.90176         1.12879
C          7.67077        12.80074         1.16773
C          6.43497        14.95975         1.35663
C          6.44302        16.39283         1.28909
C          7.64595        14.21389         1.09223
C          7.63802        17.08587         1.00913
C          6.43197        19.23435         1.23695
C          7.65813        18.52510         0.99948
C          8.62382         2.03242         0.14986
C          8.63834         3.45701         0.08432
C          9.84438         1.33031         0.05430
C          9.84480         4.15167        -0.09509
C          8.64859         6.32809         0.18845
C          8.72932         7.75020         0.39372
C          9.84780         5.59024        -0.16619
C          9.82701         8.47209        -0.04840
C          8.72954        10.60524         0.61852
C          8.77080        12.06869         0.63814
C          9.87945         9.89717         0.08271
C          9.90067        12.76424         0.14781
C          8.80514        14.92293         0.65193
C          8.81890        16.35316         0.66274
C          9.94119        14.20091         0.18586
C          9.98662        17.05145         0.27438
C          8.85045        19.19841         0.71692
C         10.02882        18.49894         0.34056
C         11.07723         2.00942        -0.10800
C         11.07892         3.44432        -0.20211
C         12.31235         1.31986        -0.17450
C         12.29412         4.15925        -0.38361
C         11.02842         6.27216        -0.44636
C         10.96281         7.73412        -0.64978
C         12.27478         5.58163        -0.53977
C         12.24341         8.46721        -0.90429
C         11.06570        10.60592        -0.27013
C         11.07940        12.03599        -0.26721
C         12.26891         9.92142        -0.64483
C         12.25348        12.72410        -0.63055
C         11.07650        14.92175        -0.28841
C         11.09402        16.32037        -0.23337
C         12.17197        14.17267        -1.02312
C         12.22967        17.08654        -0.79309
C         11.21925        19.18827         0.04400
C         12.36484        18.52237        -0.46357
C         13.53815         2.01250        -0.28800
C         13.53627         3.45409        -0.39296
C         14.77394         1.32684        -0.30214
C         14.75427         4.16790        -0.46319
C         13.50416         6.29875        -0.68291
C         13.52187         7.72121        -0.84726
C         14.74315         5.59795        -0.60039
C         14.72205         8.42439        -0.90117
C         13.46630        10.60818        -0.80946
C         13.47445        12.03108        -0.79048
C         14.71806         9.89191        -1.26982
C         14.72857        12.73686        -0.86960
C         13.51141        14.87091        -1.00152
C         13.48321        16.33233        -1.19244
C         14.70903        14.18800        -0.95336
C         14.74155        17.06985        -1.22765
C         13.57848        19.16705        -0.69644
C         14.76861        18.45766        -1.07979
C         16.00386         2.02220        -0.33861
C         16.00229         3.46824        -0.38019
C         17.23635         1.33658        -0.33923
C         17.21543         4.18120        -0.32085
C         15.96659         6.32081        -0.61864
C         15.96565         7.73832        -0.76459
C         17.20836         5.62430        -0.41777
C         17.19212         8.47572        -0.72701
C         15.98411        10.62022        -0.86303
C         15.94386        12.03977        -0.78569
C         17.17513         9.90183        -0.71335
C         17.20109        12.82203        -0.46576
C         15.97918        14.88173        -1.14279
C         15.94527        16.29295        -1.67594
C         17.17502        14.22336        -1.02231
C         17.24227        17.02550        -1.48950
C         16.02718        19.15267        -1.19384
C         17.23033        18.47833        -1.38718
C         18.46585         2.03467        -0.31190
C         18.46395         3.47751        -0.24152
C         19.70057         1.35513        -0.31965
C         19.67919         4.17715        -0.10913
C         18.40276         6.34379        -0.33404
C         18.43066         7.75840        -0.53555
C         19.63238         5.65206         0.19103
C         19.66736         8.44046        -0.53948
C         18.47137        10.62069        -0.36169
C         18.47213        12.07328        -0.77007
C         19.65732         9.88053        -0.98091
C         19.64007        12.72491        -1.10471
C         18.43794        14.87868        -1.34820
C         18.41930        16.31924        -1.54366
C         19.62214        14.15379        -1.37966
C         19.67724        17.05605        -1.93164
C         18.48574        19.16445        -1.31328
C         19.69383        18.49239        -1.46671
C         20.92307         2.05742        -0.26801
C         20.91997         3.49838        -0.12919
C         22.15567         1.37077        -0.31893
C         22.16406         4.20172        -0.07576
C         20.91195         6.38513        -0.09476
C         20.89652         7.74784        -0.31089
C         22.19713         5.67672         0.25992
C         22.14685         8.53575         0.02977
C         20.95206        10.63677        -0.79790
C         20.92746        12.01196        -1.05379
C         22.16653         9.97345        -0.46128
C         22.16625        12.74285        -1.12341
C         20.89901        14.80737        -1.85567
C         20.93682        16.29903        -1.62476
C         22.15966        14.12061        -1.39704
C         22.13391        16.97124        -1.55728
C         20.94133        19.13280        -1.31068
C         22.15732        18.43114        -1.42089
C         23.37363         2.07376        -0.35279
C         23.36594         3.51857        -0.28093
C         24.61081         1.39253        -0.38571
C         24.61112         4.23279        -0.51038
C         23.41290         6.38256        -0.30730
C         23.42253         7.80183        -0.31638
C         24.57518         5.66969        -0.58991
C         24.64451         8.52965        -0.37306
C         23.37495        10.67764        -0.44031
C         23.41358        12.05364        -0.83824
C         24.58549         9.97274         0.15786
C         24.64863        12.72845        -0.98843
C         23.38552        14.85759        -1.50323
C         23.38409        16.23868        -1.60477
C         24.64951        14.06183        -1.71863
C         24.62315        17.01095        -1.98808
C         23.39246        19.09977        -1.31378
C         24.62834        18.44187        -1.48260
C         25.83019         2.09702        -0.47901
C         25.80385         3.52223        -0.68877
C         27.06643         1.42976        -0.31532
C         27.08214         4.19099        -1.14305
C         25.75583         6.41284        -1.17110
C         25.82193         7.86724        -0.72245
C         27.08665         5.70189        -0.80864
C         27.08388         8.57402        -0.79564
C         25.95495        10.75164         0.03582
C         25.88280        12.13182        -0.63228
C         27.09069         9.95616        -0.58349
C         27.08775        12.83591        -0.82652
C         25.91243        14.87112        -1.55829
C         25.91349        16.28292        -1.70372
C         27.10678        14.16814        -1.32676
C         27.09863        17.03228        -1.63672
C         25.83656        19.12218        -1.32729
C         27.09874        18.46212        -1.45104
C         28.29978         2.13254        -0.26377
C         28.32581         3.53446        -0.57934
C         29.50255         1.47073         0.04973
C         29.52619         4.24182        -0.58582
C         28.28609         6.41067        -1.46351
C         28.32822         7.85412        -1.01754
C         29.63348         5.56740        -1.32830
C         29.55809         8.49474        -0.95440
C         28.30653        10.71508        -0.87070
C         28.39806        12.17358        -0.45651
C         29.60344         9.95544        -1.04063
C         29.65244        12.82162        -1.00361
C         28.38052        14.83247        -1.62224
C         28.38600        16.35582        -1.78785
C         29.66210        14.19740        -1.30246
C         29.64355        17.07337        -1.54589
C         28.32064        19.14783        -1.34207
C         29.58315        18.48150        -1.36834
C         30.73644         2.16393         0.03571
C         30.75011         3.56715        -0.27745
C         31.95844         1.48530         0.25935
C         32.00392         4.26433        -0.30693
C         30.81328         6.38179        -0.81728
C         30.78284         7.76360        -0.76713
C         32.02488         5.67820        -0.49547
C         31.98925         8.51853        -0.25414
C         30.87547        10.67357        -0.82122
C         30.86015        12.12106        -0.95939
C         32.02600         9.97910        -0.61852
C         32.09826        12.81934        -1.10835
C         30.86856        14.92469        -1.41587
C         30.87216        16.37256        -1.49249
C         32.10455        14.23406        -1.30428
C         32.09990        17.08411        -1.32494
C         30.81457        19.17605        -1.20417
C         32.02877        18.50378        -1.19473
C         33.20266         2.14807         0.17279
C         33.22598         3.56597        -0.09445
C         34.41944         1.45938         0.35821
C         34.47400         4.25121        -0.13437
C         33.26656         6.37835        -0.39511
C         33.29479         7.79686        -0.48479
C         34.49613         5.67292        -0.27119
C         34.50669         8.48367        -0.53342
C         33.33145        10.70818        -0.42265
C         33.31200        12.10532        -0.99520
C         34.50487         9.91157        -0.99293
C         34.52579        12.73460        -1.33323
C         33.35357        14.93623        -1.38336
C         33.37351        16.38602        -1.21534
C         34.50268        14.14638        -1.57031
C         34.48734        17.07044        -0.65026
C         33.31607        19.27756        -1.05565
C         34.34078        18.46866        -0.30239
C         35.67876         2.10749         0.24476
C         35.70763         3.54085        -0.00770
C         36.86133         1.39989         0.49318
C         36.92154         4.25880         0.01956
C         35.72646         6.39480        -0.19680
C         35.74775         7.81495        -0.34576
C         36.94515         5.68262        -0.00175
C         36.97290         8.56305        -0.18712
C         35.82140        10.65130        -0.79312
C         35.75167        11.97515        -1.25494
C         36.99311         9.98688        -0.33622
C         37.49212        13.09437        -0.42482
C         36.19481        15.21911        -0.68914
C         35.68671        16.41274        -0.14776
C         37.16660        14.42805        -0.02020
C         36.40761        16.97925         0.95552
C         35.11690        19.05625         0.66504
C         36.11086        18.31311         1.39387
C         38.16789         1.99640         0.28053
C         38.20098         3.54170         0.04771
C         39.38232         1.39021         0.84615
C         39.39962         4.27055         0.47763
C         38.16047         6.41475         0.20882
C         38.16250         7.83210         0.17165
C         39.36391         5.68993         0.55420
C         39.31814         8.54683         0.66785
C         38.32536        10.73918        -0.09529
C         38.20177        12.20175         0.35127
C         39.26222         9.96030         0.80710
C         38.92519        12.75259         1.46862
C         37.74992        14.91648         1.17525
C         37.42603        16.23720         1.61428
C         38.69549        14.10634         1.87802
C         38.11736        16.78901         2.73641
C         36.81359        18.86414         2.46522
C         37.80787        18.11974         3.15873
C         40.51678         2.11359         1.01652
C         40.55618         3.55496         0.85739
C         41.71194         4.27866         1.23763
C         40.51378         6.39068         1.00452
C         40.43356         7.82666         1.18124
C         41.68855         5.65977         1.31027
C         41.42407         8.53143         1.90207
C         40.15911        10.60321         1.68258
C         39.92810        11.98388         2.11522
C         41.24847         9.86617         2.20986
C         40.63067        12.55953         3.18644
C         39.40114        14.65972         2.98980
C         39.11356        16.02621         3.42100
C         40.36298        13.85617         3.62556
C         39.77786        16.62089         4.50655
C         38.50834        18.67442         4.25967
C         39.47655        17.92870         4.91527
O          6.04194        12.63960         3.05400
O         28.86080        10.47377        -2.20088
O         24.28220         9.89065         1.54852
O         12.48795        16.78344        -2.21233
O         38.37625         2.59690        -1.04404
O         36.93314        12.62604        -1.63317
O         29.92986         5.06195        -2.62710
O         35.70069        14.79054        -1.93904
O         28.41434        15.45811        -2.94901
O         11.34387         8.12613        -2.02557
O         27.27526         5.84071         0.61597
H         26.48870         5.47881         1.07667
O          5.03837         8.15559         3.11833
H          5.71434         8.74424         3.53748
O         25.49530         6.39017        -2.59354
H         26.37399         6.44326        -3.05729
O          6.75271        10.26619         3.31969
H          6.40721        11.05803         3.80792
O         11.75276        14.15837        -2.43245
H         11.85023        15.08917        -2.75557
O         26.40574        10.97206         1.39766
H         25.64229        10.60902         1.96120
O         18.60713        10.57468         1.08142
H         17.98385        11.24865         1.44746
O         33.55652        10.82911         1.02074
H         32.85986        11.41909         1.38093
O         17.19305        12.96636         1.01852
H         17.91740        13.58718         1.25030
O          2.86657        17.15052         3.71916
H          2.91183        16.20826         3.98880
O         38.98356        10.75114        -1.40118
H         38.44529        11.33742        -1.98207
O         31.85696         8.51182         1.21787
H         32.58145         9.08743         1.56063
O         19.62978        17.11744        -3.40325
H         19.84711        16.20621        -3.72424
O         24.54949        17.09927        -3.46034
H         25.29191        17.66939        -3.75502
O         24.62821        13.70333        -3.15144
H         24.79985        14.52993        -3.65495
O         34.27694         9.86566        -2.43167
H         34.94492         9.27013        -2.83118
O         27.19036         4.01013        -2.57905
H         28.13157         4.22334        -2.82387
O         22.10903         8.54106         1.49556
H         22.91831         9.09998         1.76980
O         19.49088         5.72804         1.66480
H         19.74696         6.63466         1.94129
O         14.69272         9.93719        -2.73574
H         13.84616         9.53812        -3.03081
O         28.62037        12.27895         0.97474
H         27.82885        11.88643         1.43292
O          8.17319         8.10977         2.63491
H          7.78109         8.79290         3.23136
O         19.39340         9.85773        -2.41632
H         20.17218         9.47143        -2.86842
O          6.68750         3.57606         2.23763
H          5.96837         3.22237         2.80079
O         33.82860        19.58387        -2.37025
H         33.99035        18.73648        -2.83461
O         28.06936         6.57220        -2.88446
H         28.83465         6.06501        -3.31065
O          6.88206         4.16788        -1.36123
H          7.56390         4.60668        -1.91222
O         20.88216        14.64150        -3.33703
H         21.79702        14.80810        -3.65451
O         22.34091         5.78238         1.71295
H         22.29953         6.75690         1.91793
O         15.77896        16.15245        -3.13610
H         15.82430        17.05231        -3.52401
H          0.30659         1.68456         0.27197
H          0.32136         4.14593         0.39079
H          2.43493         0.39002         0.32332
H          0.38990         6.09941         0.37786
H          0.49925         8.51053         0.62793
H          0.53907        10.27816         1.24466
H          0.56064        12.68822         1.49070
H          0.57826        14.58906         1.55867
H          0.59958        17.00329         1.86752
H          1.87948        19.18894         1.92355
H          4.86226         0.32916         0.27321
H          3.97453        20.35346         1.36866
H          7.33931         0.25933         0.12911
H          6.43967        20.33344         1.18170
H          9.84158         0.23182         0.11444
H          8.86902        20.29839         0.73777
H         12.32066         0.22193        -0.10343
H         11.25778        20.27836         0.18944
H         14.77999         0.22764        -0.25415
H         13.65532        20.24720        -0.50094
H         17.24237         0.23646        -0.34324
H         16.03699        20.24451        -1.06043
H         19.71361         0.25691        -0.38341
H         18.48717        20.23926        -1.07402
H         22.16235         0.27172        -0.36516
H         20.96619        20.21256        -1.09591
H         24.62484         0.29433        -0.32119
H         23.39300        20.17946        -1.09642
H         27.06386         0.34439        -0.13357
H         25.82061        20.19144        -1.06596
H         29.48924         0.39283         0.26720
H         28.30684        20.23889        -1.20133
H         31.93938         0.40596         0.47269
H         30.80128        20.26890        -1.07606
H         34.39649         0.38069         0.57436
H         33.13463        20.25481        -0.54456
H         36.80435         0.38240         0.90873
H         34.95789        20.11490         0.92142
H         39.35137         0.32744         1.12943
H         36.59679        19.89415         2.78538
H         41.42142         1.62435         1.40786
H         42.62578         3.72928         1.50587
H         42.59968         6.19000         1.61813
H         42.30318         8.00478         2.29617
H         41.99323        10.36496         2.84364
H         41.40346        11.98445         3.71362
H         40.93306        14.24454         4.48008
H         40.54957        16.06562         5.05647
H         38.27702        19.69812         4.58680
H         40.01715        18.36256         5.76816
