         288
 CSIRO Nanostructure Databank - Neutral Graphene Oxide Data Set
C        -11.09613         0.65580        -1.06726
C         -9.87585         1.37416        -0.52795
C         -8.54135         0.76699        -1.06486
C         -7.29333         1.52025        -0.74111
C         -6.11787         0.67525        -0.27829
C         -4.95739         1.37184         0.35141
C         -3.65866         0.66616         0.63000
C         -2.40080         1.44960         0.86106
C         -1.10734         0.67086         0.79859
C          0.19117         1.40682         0.62562
C          1.53341         0.67803         0.70491
C          2.73838         1.45115         1.24730
C          4.01423         0.68722         1.04994
C          5.22159         1.43675         0.60972
C          6.30933         0.77757         0.11778
C          7.56020         1.48941        -0.24351
C          8.63772         0.75600        -0.98693
C          9.96436         1.48447        -1.27876
C         11.07822         0.74448        -0.55448
C         -9.81854         2.85157        -0.76478
C         -8.78050         3.60120         0.01624
C         -7.34151         3.03729        -0.38959
C         -6.30622         3.52890         0.65058
C         -4.96472         2.87958         0.27948
C         -3.67472         3.62154         0.33118
C         -2.36594         2.87374         0.38505
C         -1.06636         3.60413         0.21832
C          0.30335         2.92705         0.35584
C          1.34663         3.66800         1.21110
C          2.66446         2.95895         1.30505
C          3.95749         3.71474         1.11203
C          5.19977         2.93496         0.72756
C          6.19310         3.64996        -0.16085
C          7.49852         2.96694        -0.41295
C          8.54072         3.59751        -1.32027
C          9.88052         2.97072        -1.01074
C         -8.76902         5.12327        -0.25585
C         -7.48176         5.84157         0.16262
C         -6.27846         5.07368         0.62157
C         -4.96020         5.81856         0.64112
C         -3.63984         5.09043         0.60095
C         -2.36101         5.81337         0.30136
C         -1.01737         5.11789        -0.01974
C          0.02721         5.88145         0.81644
C          1.33560         5.22537         1.31468
C          2.56203         5.90244         0.68649
C          3.86287         5.16022         0.62296
C          5.21063         5.91179         0.56573
C          6.15304         5.12583        -0.34924
C          7.33166         5.79294        -0.98891
C          8.44374         5.10524        -1.33803
C         -7.44429         7.19800         0.05615
C         -6.23999         8.03938         0.24931
C         -4.93324         7.30509         0.38009
C         -3.72765         7.93962        -0.24778
C         -2.40127         7.24815        -0.14646
C         -1.13807         8.05874        -0.04719
C          0.00396         7.37917         0.68711
C          1.25450         8.20502         1.01400
C          2.58872         7.41012         0.87333
C          3.85619         8.13894         0.55625
C          5.09489         7.37974         0.13999
C          6.00642         7.98159        -0.88622
C          7.07761         7.16297        -1.59345
C         -6.20514         9.45846        -0.21153
C         -5.04470        10.13427        -0.34175
C         -3.73610         9.42862        -0.45882
C         -2.44784        10.14866        -0.28263
C         -1.26025         9.53817        -0.02755
C          0.01248        10.33477         0.23142
C          1.29689         9.46800         0.09409
C          2.51066        10.26683         0.42362
C          3.88324         9.66968         0.28823
C          4.50704         9.94229        -1.07554
C          5.49052         9.18856        -1.58757
C        -11.09449        -0.67391        -1.23620
C         -9.82926        -1.46131        -1.28335
C         -8.51814        -0.72899        -1.24508
C         -7.23377        -1.51861        -1.05202
C         -5.96180        -0.76594        -0.71885
C         -4.70999        -1.52503        -0.33102
C         -3.42061        -0.78420         0.16608
C         -2.46806        -1.49100         1.14761
C         -1.17565        -0.68264         1.51767
C          0.13465        -1.52181         1.42909
C          1.48918        -0.76269         1.35064
C          2.58680        -1.55091         0.58464
C          3.97236        -0.86618         0.90397
C          4.99661        -1.36177        -0.10160
C          6.35162        -0.71534         0.14477
C          7.58370        -1.46803        -0.21717
C          8.67140        -0.73242        -0.94512
C         10.04471        -1.43883        -1.19442
C         11.10796        -0.59680        -0.50289
C         -9.80203        -2.86412        -0.83392
C         -8.66916        -3.56992        -0.59208
C         -7.30205        -3.02040        -0.85392
C         -6.04376        -3.87366        -0.55110
C         -4.73819        -3.04778        -0.23112
C         -3.62541        -3.73360         0.51837
C         -2.48316        -2.98370         1.17668
C         -1.18909        -3.77708         1.32273
C          0.13873        -3.03511         1.35148
C          1.45692        -3.81393         1.12940
C          2.72686        -3.03575         0.89361
C          3.89825        -3.63096         0.14210
C          4.97501        -2.88236        -0.23101
C          6.14343        -3.42117        -1.06013
C          7.47485        -2.98180        -0.39647
C          8.72147        -3.59308        -1.24510
C          9.93214        -2.86971        -0.73786
C         -8.84941        -4.92511         0.06676
C         -7.58033        -5.72945         0.08751
C         -6.37168        -4.93003         0.57240
C         -5.12499        -5.83399         0.84558
C         -3.79263        -5.16493         0.97928
C         -2.52417        -5.98143         0.88275
C         -1.20583        -5.25171         1.06865
C          0.06175        -6.00334         0.70939
C          1.46162        -5.34563         0.83957
C          2.38037        -5.69125        -0.35451
C          3.66626        -4.94420        -0.54073
C          4.86706        -5.68504        -1.07557
C          6.16009        -4.94786        -1.20680
C          7.42229        -5.69045        -0.87663
C          8.62407        -5.06989        -0.90588
C         -7.60371        -7.04187        -0.20142
C         -6.42606        -7.92611        -0.07704
C         -5.13204        -7.29631         0.43604
C         -3.90295        -7.94312        -0.03539
C         -2.59587        -7.33235         0.25876
C         -1.42610        -7.78436        -0.60938
C         -0.09227        -7.27788        -0.05732
C          1.03972        -7.91802        -0.82003
C          2.32941        -7.11424        -0.94780
C          3.60780        -7.94012        -0.90760
C          4.89434        -7.19335        -0.96115
C          6.14844        -7.92359        -0.44552
C          7.23434        -6.92044        -0.00803
C         -6.32744        -9.12625        -0.92397
C         -5.15553        -9.79549        -1.06457
C         -3.90298        -9.22487        -0.60824
C         -2.67256        -9.93617        -0.78619
C         -1.41541        -9.32998        -0.61456
C         -0.21235       -10.01653        -0.42312
C          1.07856        -9.37316        -0.44841
C          2.26171        -9.98914        -0.14319
C          3.63064        -9.41046        -0.39925
C          4.58835        -9.46061         0.78106
C          5.75669        -8.80690         0.73163
O          4.40118        -1.39951         2.16233
H          3.88191        -0.92850         2.85933
O          2.41538        -3.52302         2.20735
O          1.87905        -0.60238         2.71495
H          1.53157        -1.38000         3.21602
O          8.06766         2.39052         0.79786
O          0.10102        -7.32190         1.36983
O         -0.51478         0.74005        -0.50637
O         -5.69993         5.54401         1.87472
O         -6.71520        -4.17447         1.67861
O         -2.45491        -7.18749         1.70819
O         -1.17640        -4.72208         2.43411
O          6.79940        -6.40651         1.26274
H          7.22379        -5.52728         1.41029
O         -0.53302         6.70705         1.86949
O         -2.76257         5.52619         1.67554
O         -3.23001         1.06509         1.97499
O          1.13757         8.64401         2.36936
H          0.91593         7.84593         2.90632
O         -3.58852        -3.62776        -0.93552
O          5.80096         5.90562         1.87105
H          5.35954         6.59987         2.40754
O          8.50360        -3.40282        -2.62946
H          9.07159        -2.64502        -2.93084
O         -7.09030        -2.43353        -2.17520
O         -6.01518         0.79356         1.17439
O          4.72854        10.26319         1.28292
H          4.50056         9.84999         2.14307
O         -2.96927        -2.18866         2.30721
O          3.03783         5.36191        -0.57092
O          1.95095         0.65512        -0.68262
H          1.18213         0.37353        -1.23021
O         -7.74620         1.38323        -2.12519
O          4.31454        -7.80249        -2.18497
O          5.51743         4.22988        -1.32895
O          3.52939         1.03578         2.38612
O          6.28244         8.14660         0.53423
O          8.13348        -0.03133        -2.11263
O          6.64745        -8.77551        -1.49427
H          6.68222        -8.25843        -2.32697
O          3.52381         7.80496         1.94170
O          2.50491        -4.76064        -1.45266
O         -4.56625        -5.49846         2.15048
O          5.39577        -5.32402        -2.40079
O         -6.61661         3.11695         1.97372
H         -6.32666         3.82609         2.59044
O         -0.02828        10.94002         1.52232
H          0.20409        10.24673         2.18764
O          0.84624        -7.78887        -2.31931
O          1.77253         3.15986         2.49244
O          0.17393        -2.35523         2.63534
O         -5.96105        -8.15149         1.29035
O          7.30451        -1.14108         1.18589
O         -0.62469         5.26793        -1.38186
H         -1.15106         4.64071        -1.92440
O         -9.85104         1.01650         0.86840
H         -9.50008         1.78573         1.38919
O          7.50288        -3.60159         0.89728
H          7.38671        -2.87109         1.56121
O          5.01272         3.46459         2.07257
O         -1.73379         2.97212        -0.93317
O         -1.28148        -0.31230         2.89548
H         -1.65748        -1.08209         3.38212
O         -1.60419        -7.23800        -1.86718
O         -5.78247        -4.64101        -1.72632
H         -5.76467        -4.01795        -2.48763
O         -4.36711         3.36956        -0.95010
O          4.62223        -0.83337        -1.40558
H          5.15919        -1.31815        -2.08756
O         -6.97837         3.73327        -1.58793
H         -7.22030         3.15961        -2.35426
O         -9.11798        -1.11993        -2.52264
O         -1.56135         7.48275        -1.31072
O          2.21455        -1.65423        -0.80962
H          2.92680        -1.23722        -1.36211
O          8.17774         3.19985        -2.70417
H          8.44699         3.92650        -3.30601
O         -4.94075        -1.04171        -1.70854
O         -9.88507         5.65837         0.46389
H         -9.80785         6.63320         0.50612
O         -3.88073         8.47566        -1.59446
O          6.67001         6.93739        -2.95661
H          6.00877         6.21260        -2.96590
O         -8.98522         3.43506         1.42595
H         -9.64628         4.11842         1.68262
O          1.38384         8.92449        -1.24176
H          1.39312         9.66299        -1.88516
O          2.13712        -5.99561         1.92447
H          1.60641        -5.87126         2.74082
O          6.04441        -2.82254        -2.36515
H          5.81376        -3.53456        -3.00582
O         -5.50755         7.98885         1.53111
O          2.02366        -6.91864        -2.42237
H          2.77276        -7.38459        -2.92589
O          1.43943         5.58645         2.70354
H          1.69947         4.77545         3.20791
O         -9.92917        -5.62706        -0.55163
H         -9.75692        -5.67114        -1.51440
O          0.89228         3.04682        -0.95654
H          0.26930         2.62464        -1.58966
O         10.29544        -1.41022        -2.61658
H         10.25673        -0.45457        -2.89469
O          4.19724       -10.22399        -1.44394
H          5.13472        -9.93599        -1.57979
O         10.22896         1.34425        -2.71383
H          9.46281         1.78454        -3.15877
O         -2.57538        -0.69571        -1.00333
H         -3.15350        -0.62976        -1.80000
H         11.93674        -1.11228         0.00633
H         11.87609         1.33617        -0.08073
H         10.77876         3.54583        -1.29748
H          9.23870         5.63910        -1.88682
H          8.02312         7.76007        -1.63058
H          5.92849         9.42880        -2.56799
H          4.15758        10.82931        -1.62470
H          2.38719        11.08208         1.15463
H          0.06934        11.16494        -0.52256
H         -2.49104        11.24932        -0.26434
H         -5.05830        11.21633        -0.54341
H         -7.16435         9.99602        -0.26651
H         -8.33722         7.71982        -0.32941
H         -8.92187         5.30107        -1.36080
H         -9.96122         3.16654        -1.81361
H        -12.03772         1.22152        -1.12420
H        -12.02268        -1.20383        -1.50163
H        -10.76495        -3.33208        -0.57499
H         -9.14300        -4.75125         1.13696
H         -8.55460        -7.49746        -0.52596
H         -7.24170        -9.49146        -1.41503
H         -5.11669       -10.73035        -1.64280
H         -2.72436       -10.98959        -1.10452
H         -0.23351       -11.09398        -0.19805
H          2.24608       -11.05254         0.13644
H          4.34453       -10.10566         1.63767
H          6.47291        -8.88774         1.56199
H          8.21189        -7.46570         0.10674
H          9.51575        -5.60234        -0.53747
H         10.17950        -3.05639         0.32236
