         429
 CSIRO Nanostructure Databank - Neutral Graphene Oxide Data Set
C          2.09678         3.62214         2.55210
C          1.07501         4.36249         3.07024
C          1.84058         6.41467         1.93246
C          1.02351         5.77693         2.87560
C          1.75212         7.78950         1.64585
C          1.09427         8.73058         2.49972
C          1.16378        10.48911         0.72072
C          0.85499        10.01836         2.12638
C          1.21507        12.00440         0.62807
C          0.08144        12.73573         1.14228
C          1.00494        14.86824         0.33233
C          0.00643        14.09065         1.07402
C          1.06851        16.35638         0.52234
C         -0.16681        17.14769         0.45613
C          1.05804        19.22583        -0.03654
C         -0.12826        18.51025         0.32604
C          1.08610        20.63568        -0.26308
C         -0.10332        21.40301        -0.22658
C          1.12596        23.50033        -0.41935
C         -0.08287        22.78490        -0.32186
C          1.13714        24.96191        -0.39037
C         -0.04723        25.70247        -0.16011
C          1.16653        27.80734        -0.32528
C         -0.03440        27.08618        -0.14981
C          1.18713        29.26461        -0.31800
C          0.00573        30.00897        -0.36484
C          1.17870        32.15136        -0.35221
C          0.01205        31.42546        -0.43155
C          1.19112        33.61042        -0.35963
C          0.00437        34.34917         0.04519
C          1.12996        36.52271        -0.24924
C         -0.02060        35.70124         0.14966
C          1.29567        37.88988         0.26557
C          4.21844         3.50701         1.15683
C          3.24025         4.35605         1.90667
C          3.90528         6.28449         0.45427
C          2.73413         5.53307         1.06354
C          3.75670         7.63807         0.17423
C          2.40236         8.28052         0.37053
C          3.52898        10.46307        -0.19947
C          2.43305         9.79070         0.27079
C          3.44566        11.92306        -0.43831
C          2.27584        12.66786         0.05977
C          3.53691        14.86517        -0.28569
C          2.23748        14.12981        -0.18270
C          3.56221        16.28208        -0.23489
C          2.35366        17.04602         0.12568
C          3.58768        19.17945        -0.67168
C          2.24047        18.44202        -0.36077
C          3.57151        20.63640        -0.52757
C          2.34092        21.33162        -0.44781
C          3.59414        23.45593        -0.60040
C          2.35236        22.76901        -0.49038
C          3.58139        24.91489        -0.98530
C          2.34741        25.66499        -0.55567
C          3.63974        27.78792        -0.56215
C          2.37410        27.08121        -0.50190
C          3.64913        29.23170        -0.44641
C          2.45096        29.94396        -0.33190
C          3.69091        32.11080        -0.62528
C          2.47848        31.43614        -0.04597
C          3.58474        33.53038        -1.13298
C          2.37296        34.27690        -0.61396
C          3.68640        36.43146        -0.33247
C          2.41755        35.75277        -0.61268
C          3.73936        37.80091        -0.03818
C          2.50448        38.50719         0.25605
C          6.36125         3.44419        -0.03026
C          5.20737         4.14286         0.41033
C          6.15539         6.21257        -0.56419
C          5.10532         5.56825         0.11645
C          5.97425         7.62845        -0.91506
C          4.82167         8.38334        -0.41406
C          5.98466        10.53854        -0.77782
C          4.76405         9.77996        -0.56726
C          6.01401        11.96453        -0.59063
C          4.76281        12.71896        -0.62472
C          6.01387        14.85261         0.06346
C          4.73900        14.15029        -0.32903
C          6.01013        16.29310        -0.36892
C          4.80647        16.99543        -0.42115
C          6.05827        19.15999        -0.44924
C          4.83370        18.44182        -0.51792
C          6.05001        20.60497        -0.45440
C          4.81602        21.32368        -0.47887
C          6.07162        23.46615        -0.60909
C          4.81362        22.75816        -0.54373
C          6.05851        24.90008        -0.68206
C          4.87094        25.63486        -0.69064
C          6.11291        27.79151        -0.42155
C          4.84027        27.06351        -0.60470
C          6.12933        29.26641        -0.53575
C          4.90841        29.95593        -0.49490
C          6.15346        32.06213        -0.79512
C          4.89813        31.39461        -0.63354
C          6.12889        33.51499        -1.01486
C          4.87013        34.24829        -0.83763
C          6.22472        36.38619        -0.26422
C          4.89854        35.61500        -0.32926
C          6.21809        37.86354        -0.13695
C          4.98677        38.49656         0.05742
C          8.70002         3.45629        -0.74318
C          7.46717         4.12719        -0.57228
C          8.56907         6.20928        -1.29657
C          7.38958         5.53829        -0.85084
C          8.52332         7.68560        -1.46924
C          7.22929         8.43281        -1.28549
C          8.45420        10.52732        -0.56521
C          7.20371         9.85180        -0.95244
C          8.48346        11.99162        -0.47343
C          7.24104        12.70019        -0.47690
C          8.50521        14.81650        -0.33226
C          7.26273        14.10995        -0.33213
C          8.53142        16.24227        -0.39709
C          7.27906        16.97796        -0.78734
C          8.52977        19.14743        -0.43262
C          7.29693        18.45705        -0.47252
C          8.52400        20.59851        -0.38416
C          7.29021        21.31583        -0.44158
C          8.55934        23.46621        -0.45396
C          7.29490        22.75242        -0.52745
C          8.59694        24.85951        -0.55962
C          7.35731        25.58836        -1.01243
C          8.67481        27.77145        -0.90425
C          7.38744        27.03936        -0.58773
C          8.62361        29.23977        -0.55696
C          7.37864        29.95044        -0.60237
C          8.62966        32.11109        -0.59211
C          7.38071        31.38448        -0.69336
C          8.67186        33.51592        -0.65278
C          7.44476        34.25572        -1.00243
C          8.73694        36.46784        -0.62116
C          7.44532        35.74744        -0.82954
C          8.71493        37.87963        -0.16157
C          7.46684        38.53786        -0.05856
C         11.09127         3.33538        -0.95158
C          9.88478         4.11059        -1.12067
C         11.04018         6.33253        -1.52957
C          9.81626         5.53831        -1.41451
C         11.06909         7.71740        -1.23705
C          9.80158         8.45057        -1.30803
C         11.02043        10.58057        -0.65788
C          9.76783         9.80831        -0.70309
C         10.95870        11.91958        -0.33644
C          9.71067        12.65736        -0.31765
C         10.98464        14.80828        -0.26565
C          9.73636        14.08964        -0.27701
C         10.97519        16.22566        -0.32503
C          9.75366        16.95353        -0.38071
C         11.01811        19.09756        -0.37493
C          9.75963        18.40628        -0.43004
C         11.01925        20.57899        -0.47554
C          9.75129        21.32087        -0.32983
C         11.03079        23.45964        -0.11230
C          9.78809        22.72772        -0.29283
C         11.02061        24.86812        -0.00975
C          9.80071        25.60866        -0.28849
C         10.95616        27.75283         0.34220
C          9.81744        27.00103        -0.28798
C         11.05935        29.19315        -0.12709
C          9.83144        29.91519        -0.43089
C         11.05818        32.03019        -0.22836
C          9.85839        31.36570        -0.41059
C         11.06019        33.47637        -0.00359
C          9.86684        34.25058        -0.37405
C         11.17701        36.35476        -0.18829
C          9.95126        35.65588        -0.39580
C         11.19159        37.80205        -0.11243
C          9.95290        38.51602        -0.00740
C         13.64211         3.31845        -1.05975
C         12.34019         3.67659        -1.47256
C         13.53849         6.35427        -1.49026
C         12.29404         5.75474        -1.82616
C         13.51502         7.77130        -1.29340
C         12.28820         8.44973        -1.20780
C         13.45361        10.60744        -0.91892
C         12.27643         9.89280        -0.94570
C         13.48000        11.89327        -0.17827
C         12.18441        12.62893         0.17115
C         13.45664        14.80010        -0.00598
C         12.22286        14.10101        -0.17698
C         13.48379        16.21859        -0.00661
C         12.27986        16.93808        -0.56962
C         13.51156        19.10212        -0.09766
C         12.21695        18.41154        -0.27883
C         13.58878        20.59315        -0.07262
C         12.31922        21.34160        -0.33125
C         13.47093        23.44071         0.34107
C         12.27535        22.76992         0.02605
C         13.47680        24.87068         0.36358
C         12.24916        25.57776         0.18674
C         13.47023        27.68227         0.38737
C         12.26300        26.99865         0.24582
C         13.45401        29.15662         0.48936
C         12.24413        29.86000         0.01109
C         13.60712        32.03428         0.02508
C         12.35717        31.29813        -0.41529
C         13.64283        33.43057        -0.02103
C         12.38830        34.20030         0.09947
C         13.64379        36.31809        -0.13907
C         12.40525        35.65089        -0.11030
C         13.66790        37.75816        -0.12516
C         12.42944        38.46234        -0.06869
C         16.06186         3.53347        -1.01580
C         14.77736         4.17270        -1.18447
C         15.93644         6.36093        -0.77007
C         14.74222         5.59860        -1.32753
C         16.02585         7.82800        -1.10239
C         14.78853         8.50214        -1.62927
C         16.03542        10.75009        -1.13772
C         14.74092        10.01018        -1.35949
C         16.02663        12.23153        -0.74441
C         14.74693        12.65016        -0.03844
C         15.86798        14.78837         0.52886
C         14.68194        14.10885         0.22913
C         15.86374        16.19710         0.66529
C         14.65560        16.88380         0.36761
C         15.81500        19.06538         1.03811
C         14.58593        18.33719         0.60475
C         15.82008        20.54766         1.00183
C         14.71264        21.27535         0.63016
C         15.83889        23.42919         1.06105
C         14.69247        22.72600         0.68880
C         15.93071        24.85863         0.81902
C         14.70411        25.57906         0.50011
C         15.96966        27.72362         0.51348
C         14.71131        26.98917         0.44923
C         16.00851        29.08804         0.55401
C         14.76168        29.88545         0.56131
C         16.05130        31.98391         0.07830
C         14.82420        31.32118         0.17931
C         16.10105        33.40175        -0.07475
C         14.87528        34.13626        -0.05769
C         16.10657        36.25177        -0.17769
C         14.87575        35.57153        -0.12709
C         16.14235        37.71202        -0.21002
C         14.91070        38.42224        -0.11994
C         18.53931         3.52575        -1.03368
C         17.25898         4.21892        -0.96165
C         18.44554         6.36111        -0.73237
C         17.26319         5.65741        -0.88868
C         18.46838         7.79913        -0.73468
C         17.22738         8.53245        -0.92624
C         18.48186        10.63273        -0.54129
C         17.27528         9.96842        -0.90932
C         18.49216        11.99936        -0.13131
C         17.19122        12.64328         0.13194
C         18.39597        14.70953         1.16923
C         17.11264        14.00222         0.75106
C         18.33713        16.21990         1.01525
C         17.10252        16.92073         0.95234
C         18.30305        19.06455         1.32663
C         17.09151        18.33064         1.09015
C         18.27551        20.45037         1.60250
C         17.00272        21.19289         1.58903
C         18.32540        23.42410         1.71549
C         17.00313        22.71536         1.62557
C         18.37716        24.88213         1.33557
C         17.13389        25.53499         0.88493
C         18.51465        27.65596         0.65355
C         17.23622        26.92280         0.30385
C         18.54403        29.06107         0.66520
C         17.27246        29.86148         0.85111
C         18.62923        31.89853         0.01617
C         17.31155        31.19660         0.12039
C         18.69017        33.40016        -0.28631
C         17.34372        34.11198        -0.12212
C         18.56988        36.29327        -0.01553
C         17.31933        35.50328        -0.15529
C         18.60403        37.62658        -0.73141
C         17.35012        38.38575        -0.40386
C         19.70141         4.18301        -0.84843
C         20.95073         6.37303        -0.76035
C         19.71447         5.61275        -0.37482
C         20.93414         7.71846        -0.83106
C         19.70275         8.48558        -0.69146
C         20.92424        10.64052        -0.31988
C         19.72288         9.90645        -0.54275
C         20.91527        11.98521        -0.02338
C         19.68578        12.70230         0.14682
C         20.81768        14.86432         0.63037
C         19.65247        14.08275         0.56891
C         20.79021        16.21224         0.96852
C         19.56242        16.93785         1.11663
C         20.76459        19.10076         1.54068
C         19.55262        18.35377         1.30658
C         20.75846        20.40361         1.90908
C         19.49367        21.17982         2.12490
C         20.72401        23.25392         1.25191
C         19.56730        22.62288         1.61312
C         20.78452        24.65511         0.93072
C         19.67992        25.46921         0.94659
C         20.94489        27.62638         0.80054
C         19.72477        26.92001         0.74774
C         20.97317        29.01437         0.74972
C         19.77709        29.75667         0.70617
C         20.80490        31.97671         1.17456
C         19.79480        31.22333         0.65027
C         20.79076        33.41905         1.09797
C         19.80944        34.10923         0.46302
C         21.08818        36.33044         0.09969
C         19.85178        35.59338         0.34012
C         21.03391        37.71452        -0.11307
C         19.85788        38.38584        -0.41265
O         13.94887        29.67165         1.78683
O         19.00396        36.31058         1.36864
O          9.07989         9.81779         0.60181
O          1.15624        14.52391        -1.08692
O         14.34568        11.74541         1.03697
O          8.08966        36.39163        -1.96169
O         18.06743        31.14982        -1.13230
O         14.04177        19.84222        -1.25796
O         14.76846        18.63078         2.02903
O         11.63397        33.83452         1.31769
O         16.87179        12.78597         1.55714
O          5.74041        35.71696         0.92682
O          2.71566        18.63521        -1.72080
O          2.00101        16.84774         1.55311
O          6.85120        33.87160        -2.27875
O          9.20273         8.26736        -2.64113
O          1.56505        36.36738        -1.64049
O         18.33871        24.45716         2.75810
O          3.88108        12.33071        -1.74697
O          6.89863        27.27555         0.75005
O          6.27545         8.00284        -2.30087
O         15.42574        10.68226        -2.49562
O         12.30794         4.58031        -2.56403
O         11.76769        21.06969        -1.65681
O         16.70607        21.94645         2.84331
O         12.02983        12.61513         1.62268
H         12.91778        12.38690         1.99477
O          7.27131        16.90759        -2.27641
H          6.43873        17.33140        -2.57911
O         18.54358        14.49311         2.61079
H         18.12390        13.62066         2.80015
O          6.04493        14.86983         1.55844
H          5.30322        15.43795         1.85971
O          3.39288        33.45406        -2.59646
H          3.15227        34.34904        -2.91907
O         15.66684         6.35400         0.70274
H         16.41317         6.82728         1.13176
O         18.60842        37.31843        -2.17212
H         18.53876        38.16472        -2.66106
O          4.00763         4.97781         2.99998
H          4.35152         4.25840         3.56991
O          1.56753         7.77493        -0.73773
H          1.98621         8.06934        -1.57485
O          3.51391        24.90069        -2.46971
H          2.66526        24.47347        -2.71584
O          7.40207        25.58399        -2.48999
H          7.31979        24.65291        -2.78924
O          2.61653        31.53285         1.43064
H          1.87783        31.02026         1.82348
O         12.48621        16.85015        -2.03899
H         11.87191        17.48855        -2.46185
O         14.88191         8.30662        -3.08374
H         15.33946         9.10525        -3.44198
O         12.53641        31.26127        -1.89268
H         11.76492        30.78543        -2.27144
O         17.19777        30.21784         2.26366
H         16.91106        29.42969         2.77117
O          1.92810         5.02698        -0.02202
H          1.56511         5.81724        -0.49255
O         17.31385        26.71381        -1.15419
H         17.43190        27.59278        -1.57434
O         19.03587        33.53535        -1.69260
H         18.60199        32.78406        -2.15908
O         10.64411        27.82632         1.77720
H         11.37309        28.31750         2.21410
O          0.05384        10.06212        -0.11838
H          0.25741        10.31977        -1.04148
O         19.32146        21.31040         3.57347
H         18.41124        21.66918         3.72135
O         16.16074        13.02968        -1.93981
H         15.76451        12.51269        -2.68063
O         19.72994         5.54160         1.09972
H         18.96865         4.98426         1.36863
O          8.90463        27.77844        -2.34734
H          8.53781        26.93845        -2.72119
H          2.15034         2.53396         2.70654
H          0.27471         3.88112         3.65162
H          0.25978         6.35357         3.41743
H          0.78734         8.40030         3.50403
H          0.37833        10.71316         2.83316
H         -0.71069        12.17089         1.65334
H         -0.79540        14.63005         1.59917
H         -1.13196        16.63163         0.55727
H         -1.07522        19.06330         0.39764
H         -1.07526        20.90175        -0.13183
H         -1.04127        23.31942        -0.29858
H         -1.00251        25.18751         0.00355
H         -0.97974        27.61832         0.02011
H         -0.96568        29.50061        -0.41821
H         -0.94832        31.93812        -0.58551
H         -0.87808        33.77518         0.36243
H         -0.89462        36.20573         0.58881
H          0.40835        38.41153         0.65500
H          4.30603         2.43233         1.38156
H          2.58693        39.54852         0.60163
H          6.44489         2.36610         0.17410
H          4.96492        39.58079         0.24240
H          8.74708         2.38624        -0.49000
H          7.45873        39.61593         0.16475
H         11.02344         2.45946        -0.28835
H          9.98423        39.59574         0.20390
H         13.78828         2.36932        -0.52191
H         12.44914        39.56043         0.00057
H         16.08353         2.43277        -1.01498
H         14.93208        39.52246        -0.11358
H         18.53260         2.45420        -1.28510
H         17.37139        39.48627        -0.37226
H         20.66169         3.64950        -0.91538
H         21.89007         5.81641        -0.89559
H         21.86533         8.25980        -1.05189
H         21.88971        10.11732        -0.35252
H         21.87336        12.48925         0.16105
H         21.79029        14.42065         0.37314
H         21.74662        16.74915         1.01153
H         21.73217        18.58553         1.46479
H         21.71052        20.89236         2.16067
H         21.66583        22.68998         1.19531
H         21.76785        25.06519         0.66026
H         21.89195        27.07577         0.88325
H         21.93960        29.53766         0.75891
H         21.64649        31.49402         1.69055
H         21.61392        33.96616         1.58112
H         22.05626        35.81239         0.14919
H         21.97542        38.28505        -0.08726
H         19.88172        39.47074        -0.59664
