         341
 CSIRO Nanostructure Databank - Neutral Graphene Oxide Data Set
C          1.28458         3.37371        -0.05771
C          0.11347         4.08605        -0.27660
C          1.16194         6.20948         0.38476
C          0.06765         5.48215        -0.11791
C          1.13343         7.60841         0.56924
C         -0.02466         8.39311         0.32405
C          1.14842        10.48400         0.86327
C         -0.04704         9.75542         0.53811
C          1.04392        11.99094         1.08371
C          0.06288        12.68463         0.15713
C          1.05882        14.83512         0.83282
C          0.08363        14.01611         0.01216
C          1.17222        16.30629         0.46612
C         -0.04469        17.04963         0.22791
C          1.21746        19.11561        -0.14956
C         -0.00848        18.36416        -0.15839
C          1.32165        20.41830        -0.62420
C          0.22407        21.06456        -1.32804
C          1.34439        23.28829        -1.17694
C          0.24829        22.37170        -1.65225
C          1.65606        24.42860        -2.16707
C          0.45472        25.23442        -2.61335
C          1.52083        27.44290        -2.24814
C          0.42236        26.57096        -2.73227
C          1.71564        28.79583        -2.78966
C          3.69477         3.39988         0.30771
C          2.47021         4.03752         0.36033
C          3.65336         6.22888         0.80179
C          2.36224         5.44125         0.91512
C          3.62710         7.60853         0.98045
C          2.29925         8.28159         1.26216
C          3.58231        10.48789         1.39416
C          2.31566         9.78750         1.08765
C          3.62199        11.99618         1.31060
C          2.37012        12.73057         1.01475
C          3.65967        14.79471         0.68980
C          2.37855        14.07854         0.86811
C          3.65596        16.27846         0.52505
C          2.36087        16.98580         0.51458
C          3.70560        19.13276         0.35776
C          2.36592        18.49277         0.60723
C          3.74495        20.49787        -0.00270
C          2.55781        21.16362        -0.47204
C          3.82973        23.23865        -0.68629
C          2.61833        22.52370        -0.83079
C          3.88726        24.64604        -1.06190
C          2.79543        25.26797        -1.62550
C          4.02252        27.47524        -1.72807
C          2.76068        26.74367        -1.70599
C          4.07065        28.82286        -2.06720
C          2.88427        29.46506        -2.60529
C          6.15741         3.44271         0.40427
C          4.92917         4.10484         0.50103
C          6.11837         6.25336         0.74993
C          4.89410         5.53229         0.68511
C          6.09496         7.66888         0.93004
C          4.85130         8.35682         1.04292
C          6.07821        10.48456         1.28868
C          4.85649         9.76616         1.23253
C          6.09904        11.93667         1.19894
C          4.92353        12.65975         1.09130
C          6.11363        14.81318         0.97772
C          4.94417        14.10531         0.96817
C          6.12463        16.29905         1.24992
C          4.89889        17.02976         0.76828
C          6.17922        19.13210         0.77027
C          4.91411        18.41702         0.66049
C          6.10672        20.62961         0.93455
C          4.94448        21.25265         0.18939
C          6.07694        23.46223         0.49730
C          4.96144        22.61623        -0.08290
C          6.16988        24.82114        -0.16486
C          5.12664        25.38081        -0.84093
C          6.43795        27.54996        -1.08072
C          5.29402        26.69614        -1.56926
C          6.46528        28.96312        -1.45181
C          5.31064        29.54834        -1.97089
C          8.63232         3.49423         0.29124
C          7.38732         4.14916         0.46069
C          8.59085         6.30551         0.64886
C          7.36449         5.56829         0.63842
C          8.57202         7.70319         0.86206
C          7.32273         8.38871         1.04691
C          8.59687        10.48776         1.57161
C          7.30262         9.78164         1.26144
C          8.55261        11.97409         1.33217
C          7.38098        12.63478         1.14064
C          8.65872        14.84871         0.97731
C          7.39141        14.07836         0.68162
C          8.60127        16.29605         0.85089
C          7.41329        16.99839         0.87845
C          8.65510        19.19187         0.81512
C          7.39004        18.45366         0.81106
C          8.64504        20.62565         0.75256
C          7.41571        21.33751         0.66180
C          8.64174        23.44433         0.59587
C          7.41577        22.73006         0.53572
C          8.62782        24.91767         0.60682
C          7.37207        25.62157         0.13711
C          8.84702        27.63765        -0.49514
C          7.48738        26.98251        -0.42232
C          8.77784        29.14519        -0.59218
C          7.63111        29.72979        -1.13192
C         11.05901         3.55708        -0.09764
C          9.84182         4.20955         0.24362
C         11.03428         6.39790         0.29225
C          9.83745         5.64150         0.42464
C         11.00681         7.79533         0.32216
C          9.78315         8.46534         0.68918
C         10.86169        10.70520         0.32539
C          9.76356         9.84115         0.86437
C         11.08472        11.93133         1.20447
C          9.83375        12.72074         1.62557
C         11.13653        14.82970         1.15269
C          9.84652        14.16104         1.13664
C         11.15485        16.28891         0.88322
C          9.87442        17.03580         0.69550
C         11.12268        19.21719         0.93016
C          9.88017        18.51181         0.83152
C         11.10162        20.62831         0.94721
C          9.88152        21.33874         0.77192
C         11.11959        23.52045         0.73957
C          9.88129        22.77469         0.70388
C         11.10382        24.96251         0.65273
C          9.89263        25.65149         0.58843
C         11.14215        27.83068         0.43312
C          9.80966        27.15885         0.60305
C         11.13795        29.25057         0.15004
C          9.94071        29.87741        -0.27516
C         13.41464         3.62606        -0.71913
C         12.26264         4.25834        -0.24663
C         13.42981         6.49708        -0.47484
C         12.36369         5.68979         0.23755
C         13.36712         7.87806        -0.49633
C         12.18915         8.58982        -0.01377
C         13.29957        10.82763        -0.46667
C         12.14271         9.96956         0.00923
C         13.50644        12.09531         0.32533
C         12.36825        12.66819         1.09052
C         13.63175        14.84861         1.49304
C         12.32384        14.14232         1.23198
C         13.58100        16.32790         1.15398
C         12.41598        17.03443         1.08151
C         13.59086        19.19912         1.07727
C         12.40113        18.50370         1.00773
C         13.64254        20.65716         1.24458
C         12.33384        21.40453         1.20102
C         13.58293        23.55943         0.94096
C         12.35842        22.85982         0.92789
C         13.58458        24.98008         0.80094
C         12.34583        25.69367         0.70633
C         13.59262        27.88484         0.88083
C         12.31699        27.12691         0.62019
C         13.58560        29.33318         0.43866
C         12.35940        29.96915         0.18610
C         15.76357         3.69117        -1.44689
C         14.59610         4.36390        -1.03408
C         15.73027         6.52203        -1.42031
C         14.57773         5.79586        -0.98624
C         15.73351         7.94959        -1.36744
C         14.42896         8.67896        -1.22867
C         15.79979        10.74508        -0.70721
C         14.57766        10.07230        -0.67906
C         15.89105        12.12774        -0.29129
C         14.73013        12.74076         0.31559
C         16.09584        14.86764         0.53200
C         14.86841        14.09809         0.92670
C         16.04803        16.34940         0.43731
C         14.81917        17.06947         0.82182
C         16.09649        19.22981         0.66905
C         14.91278        18.49967         1.27587
C         16.06589        20.68908         0.67731
C         14.90640        21.37884         0.97177
C         16.12302        23.58755         0.75707
C         14.89848        22.86647         1.28103
C         16.06798        24.99116         0.55694
C         14.82556        25.67642         0.64182
C         16.07988        27.89128         0.25153
C         14.78918        27.12141         0.37311
C         16.05673        29.34912         0.50785
C         14.80454        30.02486         0.42601
C         18.13654         3.71118        -2.16925
C         16.91918         4.40105        -1.82826
C         18.03963         6.58314        -2.41366
C         16.88772         5.81878        -1.83366
C         18.14097         7.99405        -1.89390
C         16.94963         8.67285        -1.49351
C         18.23291        10.76607        -1.27092
C         16.99832        10.06532        -1.16117
C         18.29213        12.16486        -0.95968
C         17.12316        12.83346        -0.46331
C         18.40512        14.96395        -0.36325
C         17.21333        14.22168        -0.18243
C         18.45080        16.40302        -0.11624
C         17.31252        17.09670         0.28838
C         18.41839        19.29123        -0.24980
C         17.24670        18.53616         0.32804
C         18.49705        20.70690         0.27474
C         17.34214        21.39893         0.52885
C         18.53478        23.54775         0.31442
C         17.35244        22.86992         0.60131
C         18.54202        25.00276         0.17821
C         17.28916        25.74490         0.34039
C         18.55793        27.86643         0.60437
C         17.33589        27.13815         0.36729
C         18.49993        29.27980         0.83561
C         17.25774        29.99399         0.75187
C         19.30977         4.40744        -2.38339
C         20.53886         6.55314        -2.45948
C         19.33899         5.82316        -2.37239
C         20.55500         7.93497        -2.32775
C         19.37110         8.67232        -1.98769
C         20.61958        10.82541        -1.81963
C         19.41680        10.08388        -1.69157
C         20.66703        12.17224        -1.53944
C         19.51605        12.88014        -1.09089
C         20.81599        15.00892        -0.82704
C         19.58223        14.28392        -0.78187
C         20.88086        16.35269        -0.57196
C         19.69947        17.12553        -0.30332
C         20.92712        19.28809        -0.39941
C         19.72034        18.52107        -0.23243
C         20.98057        20.61978        -0.15793
C         19.83892        21.37883         0.45951
C         21.00542        23.58090         0.64925
C         19.84154        22.84594         0.00810
C         21.01718        24.91237         0.81322
C         19.87335        25.75401         0.39216
C         20.94231        27.90379         1.13935
C         19.79972        27.18865         0.74261
C         20.88019        29.28413         1.35336
C         19.67862        29.96824         1.19333
O          7.65842        25.52917         1.60965
O         10.64187        16.57000        -0.48497
O         12.97241        21.08981         2.51039
O         15.27901        27.51317        -0.93852
O         15.09439        16.83658        -0.60820
O         15.97773        14.26370         1.87990
O         12.04189        11.81356         2.29570
O          1.74192        27.33708        -0.80566
O         19.38223        25.47199        -0.95680
O          3.51964        11.31577         2.62722
O          2.09497        18.77388         2.04085
H          1.26091        18.30741         2.26806
O          6.04932        16.39603         2.72691
H          6.03389        17.35042         2.95941
O          3.74503        15.38781        -0.67730
O          9.31231        27.60612         1.89296
H          8.55896        27.00884         2.13164
O          8.83737        10.28321         3.01072
H          9.22763        11.12488         3.36221
O          9.87573        12.82691         3.08390
H         10.83006        12.72551         3.33549
O          2.07484         8.06339         2.71641
H          1.24428         8.52943         2.95419
O         20.08149        21.40749         1.90197
H         20.06212        20.48420         2.23055
O          5.69644        23.66771         1.90177
H          6.32216        24.35136         2.25134
O          0.56056        12.13444         2.46280
H          1.30132        11.84068         3.04182
O         18.12543        19.43747        -1.68875
H         17.24895        19.87116        -1.76837
O         12.86272        11.29140        -1.86380
H         13.55369        11.91588        -2.17932
O          0.55133        14.87562         2.19966
H          0.40604        13.93560         2.48662
O         17.72717         6.72945        -3.86548
H         18.47044         7.23157        -4.26373
O         15.00679        22.93891         2.74933
H         14.23121        22.43408         3.09969
O         20.02099        22.86190        -1.42761
H         19.93253        23.80508        -1.71053
O         13.91265         8.82313        -2.61417
H         13.30078         9.60056        -2.60722
O         15.14070        18.45270         2.71795
H         14.96805        19.34774         3.08112
O         13.75158        14.81585         2.94648
H         14.71542        14.75212         3.15211
O          5.69864        26.31098        -2.94485
H          5.78141        27.14223        -3.46014
O          9.42502        27.15227        -1.74674
H          8.88784        27.50860        -2.48536
O         12.80161         5.59060         1.63849
H         13.64072         5.08299         1.64616
O          5.83559        20.86165         2.35977
H          5.70220        21.83904         2.46501
O          2.12146         5.27483         2.35031
H          2.10592         6.18517         2.74281
O         10.32314        11.25619        -0.93475
H         11.09161        11.37670        -1.55037
O          2.15411        23.76632        -3.36664
H          2.48248        24.45151        -3.98514
O         13.74678        27.90056         2.33809
H         12.93035        28.28579         2.72161
O          7.39379        13.97233        -0.79357
H          8.18266        13.44874        -1.05391
O          0.87975        23.92131         0.04335
H          0.73947        23.22274         0.71591
H          1.33043         2.30166        -0.30054
H         -0.77939         3.56314        -0.64747
H         -0.85187         6.00666        -0.41364
H         -0.94440         7.90504        -0.02754
H         -0.99090        10.29879         0.40163
H         -0.65259        12.08125        -0.42023
H         -0.62296        14.51704        -0.66671
H         -1.00511        16.51664         0.25856
H         -0.94285        18.85611        -0.46347
H         -0.63559        20.45084        -1.63330
H         -0.60742        22.80945        -2.18642
H         -0.40248        24.65683        -2.99243
H         -0.46325        27.06102        -3.16781
H          0.88829        29.26356        -3.34436
H          3.74035         2.34148         0.00626
H          2.98700        30.49592        -2.97611
H          6.17271         2.35341         0.25180
H          5.31316        30.61977        -2.21959
H          8.64748         2.40528         0.13641
H          7.60072        30.81977        -1.28347
H         11.03204         2.48481        -0.34652
H          9.95030        30.96366        -0.45555
H         13.39622         2.54453        -0.92285
H         12.35618        31.03652        -0.08343
H         15.77136         2.59115        -1.46643
H         14.79997        31.12250         0.33929
H         18.13625         2.61192        -2.17209
H         17.26574        31.07846         0.93804
H         20.25327         3.85926        -2.52799
H         21.48789         6.01151        -2.59039
H         21.51965         8.45328        -2.39750
H         21.53823        10.32979        -2.15901
H         21.62150        12.69825        -1.66981
H         21.74781        14.48185        -1.07074
H         21.85593        16.85360        -0.63280
H         21.84114        18.77886        -0.73871
H         21.92612        21.16004        -0.31157
H         21.87346        22.98856         0.97464
H         21.87841        25.39619         1.29707
H         21.90680        27.38931         1.24640
H         21.79007        29.83062         1.63725
H         19.63524        31.05370         1.36220
