         252
 CSIRO Nanostructure Databank - Neutral Graphene Oxide Data Set
C         30.36944        31.64425        -0.61249
C         30.47793        32.86222        -0.86517
C         30.62661        36.00951        -1.58089
C         30.69099        37.12299        -2.12315
C         30.67491        40.24729        -2.18330
C         30.56134        41.43218        -1.84446
C         32.73966        28.86082         0.16339
C         31.62810        29.44373        -0.00040
C         32.77227        31.49467        -0.36380
C         31.51369        30.81488        -0.31354
C         32.86998        32.93251        -0.87261
C         31.57169        33.75951        -0.92533
C         32.92641        35.86057        -1.04291
C         31.65689        35.10350        -1.16967
C         33.00443        37.24884        -1.33894
C         31.90393        37.95135        -2.04925
C         32.96388        40.19862        -1.29039
C         31.89563        39.45786        -2.04435
C         32.84206        41.64294        -1.07365
C         31.61184        42.31806        -1.45719
C         32.79232        44.35937        -1.28721
C         31.73476        43.70259        -1.49472
C         35.51743        27.26966         0.63054
C         35.30554        28.63790         0.14479
C         34.03541        29.36280         0.08061
C         35.23956        31.52484        -0.00351
C         34.01999        30.80002        -0.13506
C         35.24033        33.00038         0.03066
C         33.97992        33.74380        -0.22537
C         35.25053        35.92493        -0.26516
C         34.06836        35.19970        -0.54024
C         35.27494        37.32518        -0.42902
C         34.13502        38.01365        -0.94764
C         35.12773        40.14588        -0.07902
C         34.08700        39.46912        -0.90331
C         35.03974        41.64810         0.13351
C         33.99080        42.40804        -0.63598
C         35.65770        44.82897         0.47669
C         34.01388        43.82005        -0.85295
C         35.83506        46.12883         1.06152
C         37.82962        27.33796         1.40103
C         36.59515        26.71202         0.88953
C         37.81002        28.81526         1.05286
C         36.57523        29.43555         0.42859
C         37.75827        31.56503         0.01051
C         36.45936        30.92892         0.62031
C         37.77551        33.01787        -0.03923
C         36.51474        33.76889        -0.33763
C         37.77389        35.90932        -0.07541
C         36.47879        35.19125         0.25710
C         37.75478        37.36959        -0.14784
C         36.48609        38.07955        -0.10014
C         37.65530        40.15684         0.56092
C         36.42801        39.44586         0.11937
C         37.59139        41.62498         0.94676
C         36.23763        42.31443         0.80784
C         38.04052        44.55445         2.15812
C         36.20476        43.75858         1.13822
C         38.03246        45.95185         2.23413
C         36.73858        46.40387         1.88858
C         40.41041        24.85321         2.30122
C         39.25953        25.38185         2.21714
C         40.29470        27.60448         1.96915
C         39.17565        26.66185         1.37410
C         40.31796        28.93416         1.19191
C         39.11322        29.49442         0.80134
C         40.33016        31.56721        -0.20353
C         39.04492        30.79262         0.06980
C         40.27826        33.05067         0.13883
C         38.98359        33.77148         0.45031
C         40.22067        35.83982        -0.55171
C         38.94675        35.21575        -0.03245
C         40.20983        37.37942        -0.51555
C         38.94233        38.07537        -0.20327
C         40.24339        40.24933         0.24167
C         38.98572        39.45701         0.31119
C         40.20336        41.72452         0.46230
C         38.90683        42.43856         0.93212
C         40.31934        44.49660         1.30376
C         39.10599        43.79932         1.55710
C         40.38373        45.96439         1.39670
C         39.30191        46.71777         2.23172
C         40.20726        48.72844         1.13811
C         39.28207        48.10254         1.67305
C         43.00045        24.88309         2.12636
C         41.68894        25.37754         2.22919
C         42.97960        27.63290         1.81380
C         41.68382        26.90754         2.09442
C         42.95946        29.09747         1.32933
C         41.56077        29.64876         0.96062
C         42.78555        31.61315         0.08552
C         41.55845        30.90007         0.36867
C         42.76442        33.06393        -0.00745
C         41.47707        33.77269         0.09063
C         42.70114        35.94187         0.22653
C         41.46382        35.18661         0.01816
C         42.72423        37.44098         0.02109
C         41.47102        38.16734        -0.36610
C         42.70141        40.35873        -0.17697
C         41.42173        39.61969        -0.02216
C         42.76534        41.75566         0.29747
C         41.50254        42.42858         0.59913
C         42.75521        44.54079         0.50122
C         41.48152        43.79861         0.83421
C         42.79324        46.00448         0.97474
C         41.42818        46.66352         0.83691
C         42.60470        48.73433         0.11892
C         41.22757        48.11409         0.22651
C         44.07811        25.43169         1.82714
C         45.35072        27.29754         0.71354
C         44.41802        26.90147         1.83057
C         45.18082        28.64589        -0.00468
C         43.84558        29.39131         0.09122
C         45.20642        31.53941        -0.31639
C         43.98052        30.89969        -0.00626
C         45.15500        33.01070        -0.69584
C         43.94173        33.75147        -0.16217
C         45.20782        35.97694        -0.31566
C         44.04737        35.19626         0.29000
C         45.19808        37.37740        -0.33151
C         44.00690        38.11736        -0.19158
C         45.27971        40.28629         0.01156
C         44.01144        39.59157        -0.31601
C         45.27456        41.67734         0.31997
C         44.00029        42.37876         0.43066
C         45.26772        44.58166         0.70529
C         43.98886        43.78347         1.01647
C         45.10951        45.96171         0.07578
C         43.96503        46.67449         0.24842
C         43.58320        47.99667        -0.10562
C         47.56643        27.39696        -0.09574
C         46.76836        26.89024         0.72033
C         47.62840        28.71279        -0.65020
C         46.39389        29.37999        -0.47391
C         47.65969        31.52090        -0.82511
C         46.37582        30.81116        -0.56130
C         47.71588        33.00980        -0.73551
C         46.44814        33.78746        -0.33985
C         47.72785        35.90970        -0.78825
C         46.37785        35.22676        -0.92276
C         47.74770        37.39575        -0.73306
C         46.45906        38.14734        -0.57100
C         47.70984        40.19014         0.19507
C         46.48341        39.55894        -0.08356
C         47.71630        41.54732         0.62148
C         46.52149        42.32546         0.59354
C         47.80818        44.55233         0.06350
C         46.56893        43.83635         0.63968
C         47.40156        45.71786        -0.66166
C         46.32209        46.32615        -0.59230
C         50.00563        28.76087        -1.55251
C         48.77183        29.35235        -1.22979
C         50.01199        31.46288        -1.70257
C         48.81584        30.77873        -1.40032
C         50.10918        33.00882        -1.77548
C         48.73987        33.77447        -1.58054
C         50.20378        35.92926        -1.09040
C         48.86655        35.21066        -1.02683
C         50.18645        37.31556        -0.42863
C         49.03468        38.03942        -0.36506
C         50.28873        40.22217         0.27990
C         49.00460        39.50848        -0.07659
C         50.22140        41.53731         0.98330
C         48.97909        42.10035         1.11771
C         50.38862        44.42010         0.45450
C         48.98038        44.30218         0.70288
C         51.08142        29.34081        -1.87802
C         52.41116        31.57275        -1.70951
C         51.25043        30.73251        -1.86249
C         52.41455        32.65048        -1.08590
C         51.26166        33.54035        -0.88312
C         52.49121        35.80410        -0.27149
C         51.32022        34.98195        -0.54684
C         52.61633        37.02745        -0.15852
C         51.46702        37.91370         0.11316
C         52.64488        40.26403         0.66979
C         51.51717        39.34635         0.49149
C         52.66386        41.46249         0.94181
C         51.51923        42.34416         1.35652
C         51.34711        43.65568         0.60922
O         46.16269        44.53647         1.87326
O         50.93431        33.99832         0.44081
O         39.32306        42.44318        -0.48044
O         40.93229        37.90363        -1.70177
O         37.59400        28.31960         2.41710
O         36.77799        43.97545         2.41371
O         48.85522        43.34111         1.75432
O         34.39712        33.48755         1.15488
O         34.47213        40.72431         1.11246
O         44.87892        27.34211        -0.63376
O         48.20585        32.25099         0.39301
O         38.36505        39.47446         1.65269
O         49.80917        40.25061        -1.08945
O         38.19593        30.76658        -1.15395
O         48.18420        33.88539        -2.87956
O         51.32344        38.33356         1.50619
O         42.56764        36.88235         1.39096
O         32.32795        38.70819        -3.19874
O         43.31107        40.12651        -1.49476
O         47.05918        37.99058        -1.89599
O         35.11083        44.65714        -0.78559
O         36.66998        41.65381         2.05180
O         42.45347        27.54972         3.18432
O         36.25652        28.99665        -0.91117
O         50.52311        36.15731        -2.47469
H         50.47300        35.29074        -2.95114
O         39.81451        46.73643         3.56287
H         40.66072        47.23036         3.56891
O         50.53544        33.34252        -3.10935
H         49.67746        33.46948        -3.61136
O         43.50269        29.87462         2.40824
H         43.07837        29.57541         3.24172
O         46.06260        35.24364        -2.33516
H         46.88287        34.86021        -2.80579
O         36.48527        31.22878         2.02964
H         35.94646        32.03076         2.20300
O         46.50506        33.96669         1.07900
H         47.04137        33.22770         1.45288
O         42.86146        44.54451        -0.93991
H         42.01382        44.85375        -1.32319
O         36.43755        33.96126        -1.78306
H         36.59907        33.10143        -2.22656
O         44.38091        35.11106         1.70762
H         43.95702        35.88372         2.15145
O         44.97996        32.91937        -2.13276
H         45.13502        33.82092        -2.52360
O         45.04551        27.26495         3.03342
H         44.41294        27.11272         3.76975
O         39.51428        26.35833         0.03662
H         38.75900        25.90891        -0.39876
O         38.90912        33.82559         1.92027
H         38.03758        34.24201         2.14745
O         39.89345        27.88663         3.31216
H         40.68957        28.15653         3.82102
O         43.08617        46.05087         2.38696
H         43.30299        46.97678         2.62392
O         33.30080        32.82861        -2.26150
H         32.60930        32.35009        -2.76655
O         43.87344        43.59361         2.43320
H         44.73706        43.85399         2.83546
O         43.05968        28.96228        -1.04375
H         43.58981        29.08478        -1.85860
O         40.55502        31.57827        -1.64313
H         39.68142        31.39994        -2.06908
O         40.68796        47.93450        -1.05517
H         40.51076        48.81018        -1.45557
O         51.52727        42.61264         2.72559
H         52.30809        43.15651         2.95277
O         36.40922        35.06243         1.70214
H         36.22092        35.94508         2.08578
O         40.25455        35.45355        -1.95963
H         40.68918        36.18887        -2.45481
