         344
 CSIRO Nanostructure Databank - Neutral Graphene Oxide Data Set
C          1.37589         3.51174         0.53284
C          0.14456         4.13116         0.39801
C          1.22435         6.31494         0.21483
C          0.05500         5.52263         0.24748
C          1.16484         7.78891         0.17508
C         -0.01609         8.47162         0.54116
C          1.13763        10.60721         0.38730
C         -0.03913         9.85329         0.60025
C          1.14066        12.04387         0.54653
C         -0.09333        12.78366         0.47859
C          1.02815        14.92716         0.91991
C         -0.13974        14.14364         0.51913
C          1.09490        16.38430         0.69879
C         -0.08039        17.12069         0.43554
C          1.14188        19.23686         0.44495
C         -0.06445        18.49956         0.32881
C          1.14507        20.66308         0.42626
C         -0.06954        21.44369         0.38274
C          1.16761        23.61631         0.61569
C         -0.07969        22.79889         0.43470
C          1.17641        24.94410        -0.16594
C         -0.01637        25.65226        -0.43792
C          1.23731        27.61633        -1.17299
C          0.01348        26.94957        -0.93383
C          1.28490        28.99673        -1.58116
C          3.83119         3.64053         0.61707
C          2.58509         4.27562         0.48888
C          3.74273         6.54161         0.20821
C          2.48136         5.69740         0.30860
C          3.49947         7.77127        -0.69782
C          2.32298         8.53240        -0.12270
C          3.59710        10.66379        -0.01595
C          2.34591         9.93326         0.05334
C          3.60059        12.05457         0.31322
C          2.36684        12.72333         0.60292
C          3.62277        14.90989         0.81916
C          2.38471        14.14674         0.95946
C          3.58625        16.34071         0.88283
C          2.33937        17.06195         0.78175
C          3.60480        19.17281         0.71931
C          2.37181        18.49018         0.63484
C          3.66362        20.59227         0.21555
C          2.38861        21.38697         0.42806
C          3.68632        23.47444         0.27695
C          2.40509        22.76479         0.39548
C          3.67333        24.91011        -0.13848
C          2.39334        25.58434        -0.44959
C          3.71493        27.59261        -1.16924
C          2.45134        26.91301        -0.95552
C          3.73076        28.98452        -1.50999
C          2.47303        29.65773        -1.71569
C          6.28863         3.64713         0.04814
C          5.10497         4.42758         0.56089
C          6.14084         6.46819        -0.51707
C          4.88162         5.66025        -0.33158
C          6.08631         7.85743        -0.67635
C          4.79140         8.61569        -0.95257
C          6.03891        10.70248        -0.27928
C          4.80759        10.00054        -0.31680
C          6.05466        12.09933         0.06683
C          4.82960        12.77944         0.33688
C          6.07399        14.88820         0.66751
C          4.83621        14.19608         0.61114
C          6.10684        16.32336         1.14904
C          4.80038        17.06813         0.98388
C          6.05147        19.21560         1.44160
C          4.80289        18.47421         0.98513
C          6.09165        20.68992         0.99814
C          4.93087        21.32542         0.57856
C          6.15004        23.34985        -0.07136
C          4.95179        22.70810         0.21604
C          6.14526        24.65396        -0.77692
C          4.88829        25.44726        -0.82132
C          6.18348        27.55799        -1.22653
C          4.94123        26.90501        -1.06570
C          6.19473        28.97278        -1.48095
C          4.95796        29.64960        -1.64584
C          8.54598         3.51871        -0.98924
C          7.35605         4.29844        -0.47881
C          8.56034         6.45762        -0.88520
C          7.35602         5.75427        -0.60806
C          8.51763         7.88365        -0.94105
C          7.30443         8.59300        -0.78934
C          8.48673        10.76750        -0.55754
C          7.28414        10.04132        -0.60587
C          8.52277        12.13881        -0.14953
C          7.28878        12.81968         0.11714
C          8.53633        14.96397         0.47113
C          7.28132        14.22246         0.41750
C          8.55191        16.33291         0.55309
C          7.23887        17.09171         0.42967
C          8.51593        18.87255         1.56550
C          7.32254        18.45383         1.07207
C          8.53817        20.99956         1.50362
C          7.31138        21.46505         0.98164
C          8.62482        23.35856         0.08894
C          7.37603        22.71020         0.27217
C          8.69914        24.67523        -0.57211
C          7.44129        25.36456        -1.01860
C          8.64336        27.53512        -1.16022
C          7.43790        26.84908        -1.13294
C          8.65799        28.96359        -1.37087
C          7.43832        29.64480        -1.56524
C         11.03582         3.63638        -1.14640
C          9.82547         4.32386        -1.04481
C         11.03870         6.47545        -1.46108
C          9.78630         5.73683        -1.05982
C         11.05149         7.91693        -1.04426
C          9.77153         8.62192        -1.16901
C         11.03600        10.76429        -0.58273
C          9.75896        10.12860        -0.94635
C         11.00197        12.14007        -0.20830
C          9.77578        12.80716        -0.01949
C         10.98867        14.99823        -0.08915
C          9.84094        14.20767         0.55409
C         11.03851        16.40624         0.46100
C          9.81673        17.04937         0.71614
C         11.01314        19.18618         1.20161
C          9.82471        18.39339         1.16479
C         11.01494        20.66499         1.22528
C          9.79749        21.44401         1.08199
C         11.08168        23.43559         0.40616
C          9.83316        22.74410         0.48572
C         11.08385        24.83701         0.04867
C          9.91331        25.46666        -0.40903
C         11.11578        27.65700        -0.66379
C          9.97391        26.79460        -1.12772
C         11.09552        29.03044        -0.92280
C          9.89723        29.65704        -1.36464
C         13.51914         3.62025        -1.07832
C         12.29793         4.32000        -1.13339
C         13.50341         6.45783        -0.95535
C         12.30441         5.74294        -1.13562
C         13.49383         7.88822        -0.78188
C         12.24017         8.60594        -0.82622
C         13.47973        10.68566        -0.23507
C         12.23897        10.03610        -0.58319
C         13.48190        12.11019        -0.01782
C         12.26565        12.83564        -0.03283
C         13.49880        14.93230         0.24269
C         12.28690        14.24621         0.06786
C         13.49716        16.42098         0.29933
C         12.23487        17.12059         0.61439
C         13.52237        19.20072         1.08952
C         12.25000        18.50461         0.95146
C         13.48955        20.65498         1.38326
C         12.22138        21.36827         1.10858
C         13.51749        23.49453         0.72005
C         12.26971        22.77436         0.79282
C         13.51139        24.89103         0.38298
C         12.28967        25.57435         0.15374
C         13.51806        27.81485         0.28655
C         12.15465        27.07661         0.26709
C         13.49057        29.19665        -0.34715
C         12.31834        29.78915        -0.76268
C         15.99625         3.63470        -1.04656
C         14.75176         4.31519        -1.01565
C         15.96239         6.46559        -0.80251
C         14.73831         5.74554        -0.90420
C         15.95168         7.87084        -0.57509
C         14.69674         8.56978        -0.48568
C         15.92338        10.58012         0.43553
C         14.67647         9.95824        -0.14939
C         15.93607        12.08605         0.37898
C         14.71618        12.80425         0.21185
C         15.90004        14.89814         0.98519
C         14.70618        14.21858         0.35282
C         16.08773        16.37432         0.54874
C         14.78218        17.15914         0.47794
C         16.01869        19.25342         1.12379
C         14.74250        18.56179         0.95345
C         16.04719        20.69506         1.20583
C         14.78371        21.43501         1.37425
C         15.97473        23.55751         0.81427
C         14.76850        22.86657         0.97969
C         15.96999        24.93255         0.40789
C         14.73720        25.59046         0.22364
C         15.97233        27.75114        -0.19018
C         14.66744        26.99402        -0.33522
C         15.95506        29.16231        -0.25511
C         14.75006        29.86294        -0.40322
C         18.47591         3.67470        -1.08783
C         17.21447         4.34041        -1.01257
C         18.41882         6.50501        -0.90982
C         17.20041         5.76944        -0.89795
C         18.39312         7.92499        -0.80264
C         17.18489         8.59100        -0.53514
C         18.39711        10.63892         0.07092
C         17.20187         9.97843        -0.11552
C         18.40447        11.91497         0.89395
C         17.16393        12.77150         0.61123
C         18.50805        14.88046         0.87103
C         17.19283        14.13958         0.82074
C         18.43302        16.29763         1.46754
C         17.10227        17.05593         1.48272
C         18.49951        19.25775         1.51366
C         17.20698        18.53774         1.18884
C         18.48025        20.68063         1.01681
C         17.25602        21.38861         1.10285
C         18.48676        23.48169         0.47568
C         17.28752        22.89613         1.18889
C         18.54162        24.99051         0.39532
C         17.19734        25.64997         0.17667
C         18.45962        27.73612        -0.31902
C         17.19217        27.02388        -0.10603
C         18.48254        29.14527        -0.35489
C         17.23578        29.95005        -0.09671
C         19.66024         4.39026        -1.05467
C         20.88953         6.55570        -0.86614
C         19.66127         5.80243        -0.96920
C         20.89671         7.91061        -0.84968
C         19.64562         8.72212        -1.07599
C         20.78792        10.83336        -0.32820
C         19.64792        10.07572        -0.38545
C         20.79746        12.15961         0.23196
C         19.69162        12.70861         0.79834
C         20.94196        14.85642         1.33976
C         19.66519        14.05126         1.50833
C         20.96489        16.19203         1.20426
C         19.74940        17.02693         1.41707
C         20.82067        19.13648         0.60331
C         19.73882        18.48002         1.13849
C         20.80936        20.53350         0.34775
C         19.66610        21.31340         0.55843
C         20.82521        23.43150        -0.23918
C         19.62444        22.75128         0.25413
C         20.81414        24.71965        -0.62798
C         19.52250        25.49539        -0.66966
C         20.84194        27.69653        -0.79800
C         19.64925        27.00645        -0.56052
C         20.86745        29.09506        -0.79316
C         19.69263        29.81542        -0.58333
O         18.22489        11.52437         2.26626
O         14.18400        17.03067        -0.87666
O          5.28680        24.63824        -1.98270
O         19.12693        16.58800         2.71344
O          8.50998        19.96913         2.45172
O          3.84075        24.59659         1.28808
O          1.63129        14.48549         2.16915
O          9.73281         9.56222        -2.30781
O          8.24838        24.67109        -2.03448
O         14.10695        21.09927         2.64463
O          3.04463         7.28898        -2.00073
H          2.16909         6.86255        -1.87040
O          3.77020        20.43980        -1.24945
H          2.98542        19.93366        -1.55033
O         17.49290        23.22985         2.61826
H         17.96191        22.47428         3.03515
O         18.52935        19.35194         2.99453
H         18.68408        18.43197         3.32157
O          4.50842         5.10768        -1.61471
H          4.21048         5.85268        -2.18863
O          8.73159         2.31503        -0.23525
H          8.97207         2.56300         0.68066
O         14.36881        26.87703        -1.75605
H         15.11279        26.40348        -2.18368
O         19.41512        13.80632         2.89409
H         18.94333        12.91917         2.95053
O         16.64615        16.38688        -0.78327
H         15.88203        16.48228        -1.40446
O          1.20718        24.02856         2.02383
H          2.10747        24.41040         2.16967
O         10.98942         6.52881        -2.95093
H         10.34567         7.23016        -3.19484
O         10.18021        14.07683         1.96357
H          9.40214        13.70987         2.43313
O          6.41112        16.28233         2.56855
H          6.19295        17.16974         2.94554
O          4.08901         7.09238         1.49289
H          4.49965         6.36981         2.02951
O          6.87078        17.17998        -0.96563
H          7.62475        17.55777        -1.46345
O         19.62600         9.02423        -2.52217
H         19.58263         8.16767        -2.99805
O         16.57642        17.01450         2.82847
H         17.31950        16.80502         3.43717
O          5.44318         4.86179         1.92960
H          5.42313         4.06769         2.50397
O          4.87142         8.92833        -2.37497
H          4.16595         8.41892        -2.83554
O         18.93112        15.03502        -0.51557
H         18.19701        15.49293        -0.99542
O         10.69983        15.09721        -1.50912
H         11.45002        15.55668        -1.94140
O         19.02478        25.43325         1.69581
H         18.52092        24.91466         2.36942
O         18.90048        25.22158        -1.96138
H         19.52609        25.50143        -2.66163
O         11.49948        27.27147         1.56491
H         12.19056        27.63601         2.17140
O         10.26748        26.45258        -2.53247
H          9.57348        25.79578        -2.79665
O          5.95402        19.19332         2.90160
H          6.77431        19.62384         3.24377
O         13.86614        28.01252         1.68294
H         14.59136        28.67286         1.72276
O         17.28478        30.46151         1.25863
H         17.55991        29.72803         1.84682
O         15.54671        14.86442         2.40007
H         15.61102        13.93249         2.70000
O         15.89584        10.27919         1.87318
H         16.76726        10.65023         2.23660
H          1.43836         2.42162         0.66077
H         -0.77594         3.53082         0.41835
H         -0.93420         5.98922         0.14685
H         -0.92372         7.90655         0.79227
H         -0.97062        10.35883         0.88739
H         -1.01314        12.23749         0.22687
H         -1.07167        14.65750         0.24604
H         -1.04454        16.60060         0.35875
H         -1.01583        19.02081         0.16240
H         -1.03382        20.92096         0.31039
H         -1.04835        23.31882         0.43750
H         -0.99095        25.18919        -0.23184
H         -0.93078        27.48511        -1.11032
H          0.33543        29.52529        -1.75168
H          3.86983         2.55131         0.77313
H          2.48693        30.72066        -1.99810
H          6.31754         2.55224         0.16377
H          4.96572        30.72357        -1.88534
H          8.31142         3.19321        -2.04218
H          7.45223        30.72805        -1.75704
H         11.02383         2.53666        -1.14444
H          9.90376        30.73937        -1.56148
H         13.51822         2.52056        -1.10728
H         12.33814        30.82599        -1.13245
H         16.00741         2.53747        -1.12829
H         14.77749        30.94634        -0.59508
H         18.49648         2.57778        -1.16237
H         17.21203        30.84719        -0.76799
H         20.62248         3.85887        -1.09292
H         21.83399         5.99665        -0.77987
H         21.85840         8.43965        -0.77952
H         21.73582        10.44582        -0.72767
H         21.74977        12.70817         0.19682
H         21.89897        14.31334         1.31638
H         21.92876        16.70764         1.07525
H         21.73730        18.58046         0.35990
H         21.72542        20.98194        -0.05688
H         21.77001        22.87176        -0.27789
H         21.73713        25.17341        -1.01903
H         21.77617        27.14950        -0.98603
H         21.81398        29.62461        -0.96897
H         19.70835        30.91448        -0.59638
