         618
 CSIRO Nanostructure Databank - Neutral Graphene Oxide Data Set
C         23.32479        69.84138         1.45128
C         23.25406        71.24809         1.31697
C         22.04825        71.96155         1.54756
C         23.15345        74.07124         1.08083
C         22.00943        73.35033         1.42229
C         25.85506        65.55642         1.37924
C         25.74680        67.02408         1.03344
C         24.60168        67.72153         1.35159
C         25.69087        69.85826         0.79133
C         24.52202        69.14358         1.19186
C         25.65395        71.29423         0.70610
C         24.43243        71.97945         0.95445
C         25.57409        74.11265         0.53669
C         24.38388        73.40179         0.84783
C         27.98224        61.19135        -0.01340
C         27.83544        62.65423        -0.19780
C         26.91303        63.44286         0.63172
C         27.97737        65.55124        -0.05863
C         26.90748        64.80892         0.58848
C         28.01244        66.98439        -0.00338
C         26.87997        67.71340         0.48806
C         28.02718        69.83206        -0.03376
C         26.86730        69.13323         0.43055
C         28.08487        71.30680         0.14911
C         26.82735        72.03648         0.40899
C         28.03803        74.28551         0.15558
C         26.78472        73.44949         0.33729
C         30.30377        56.99369         0.14236
C         30.30446        58.32016        -0.28812
C         28.97563        58.97036        -0.59305
C         30.17402        61.11307        -1.20630
C         29.02192        60.47727        -0.50514
C         30.16862        62.61534        -1.35332
C         28.97067        63.40834        -0.87253
C         30.24787        65.56480        -0.97302
C         29.06506        64.86294        -0.63184
C         30.30772        66.96805        -0.92107
C         29.13833        67.69360        -0.51286
C         30.21650        69.85376        -1.21950
C         29.12587        69.12678        -0.51542
C         30.26465        71.34892        -1.20653
C         29.26894        72.07874        -0.35067
C         30.28789        74.24582        -0.92865
C         29.21760        73.56182        -0.46735
C         32.69892        52.78341         0.99065
C         32.71411        54.15345         0.72122
C         31.50676        54.88365         0.54762
C         32.75573        56.96865         0.11393
C         31.51524        56.26824         0.28447
C         32.75773        58.33592        -0.31055
C         31.51207        58.99811        -0.56281
C         32.75666        61.06902        -1.39198
C         31.44603        60.25651        -1.42543
C         32.72425        62.57212        -1.24677
C         31.46795        63.36769        -1.67552
C         32.79067        65.54489        -1.18457
C         31.50030        64.79294        -1.10232
C         32.76137        67.00811        -1.38115
C         31.54139        67.66560        -1.26051
C         32.81907        69.87558        -1.45806
C         31.48380        69.10936        -1.52190
C         32.82436        71.34584        -1.25759
C         31.55596        72.07511        -1.50156
C         32.83348        74.22344        -1.04087
C         31.55304        73.57670        -1.34188
C         35.13803        48.47553         0.91658
C         35.13907        49.87842         0.91047
C         33.94902        50.60728         0.95757
C         35.20286        52.77413         1.05491
C         33.93143        52.04327         1.40325
C         35.19676        54.18179         0.83385
C         33.96811        54.88037         0.64291
C         35.22786        56.96118         0.18144
C         33.98423        56.26503         0.31405
C         35.23260        58.35815        -0.14653
C         34.01094        59.00902        -0.45726
C         35.21148        61.25132        -0.55825
C         34.02820        60.40917        -0.94672
C         35.32039        62.62992        -1.07791
C         34.02039        63.33660        -1.20377
C         35.31113        65.52478        -1.65844
C         33.97145        64.77660        -1.75236
C         35.30357        66.99029        -1.38136
C         34.03279        67.70756        -1.39694
C         35.22213        69.77110        -0.71097
C         34.02703        69.09092        -1.21500
C         35.20502        71.29442        -0.58350
C         33.97957        72.03030        -0.98265
C         35.26965        74.13910        -0.76949
C         34.01693        73.49153        -0.94737
C         37.79247        44.45453        -0.04789
C         37.62537        45.66375         0.69771
C         36.43299        46.33249         0.73228
C         37.61889        48.39041         1.46972
C         36.29336        47.65252         1.44234
C         37.47125        49.86129         1.85471
C         36.48424        50.57648         0.89761
C         37.62189        52.79808         1.22314
C         36.41228        52.07474         1.13365
C         37.64956        54.18690         0.95067
C         36.43383        54.88225         0.70591
C         37.71168        56.95741         0.27299
C         36.45899        56.27486         0.38623
C         37.71658        58.37365        -0.02942
C         36.48998        59.05027        -0.18142
C         37.76314        61.25289        -0.40530
C         36.49742        60.52298        -0.23904
C         37.76419        62.62890        -0.68210
C         36.52543        63.30127        -1.04607
C         37.86480        65.49003        -1.24014
C         36.58687        64.73363        -1.45904
C         37.81948        67.00267        -1.15792
C         36.49987        67.68032        -1.13466
C         37.70210        69.80191        -0.59627
C         36.51079        69.07712        -0.80609
C         37.67590        71.24585        -0.51893
C         36.50301        71.97646        -0.58941
C         37.68288        74.13246        -0.37958
C         36.49981        73.44376        -0.61329
C         40.38151        40.72887        -1.83075
C         40.33251        41.94156        -1.11259
C         39.12552        42.60158        -0.90292
C         40.22722        44.43244         0.39690
C         39.02787        43.82982        -0.19003
C         40.12538        45.57987         1.14034
C         38.78545        46.18628         1.51775
C         40.09971        48.42555         1.40394
C         38.79031        47.71348         1.49319
C         40.10956        49.91353         1.50756
C         38.83413        50.61733         1.85246
C         40.14998        52.79019         1.39948
C         38.86371        52.10258         1.59066
C         40.11504        54.16219         1.16371
C         38.89989        54.88554         0.89791
C         40.20082        56.95129         0.42764
C         38.92375        56.26452         0.55358
C         40.23824        58.31987        -0.22978
C         38.95142        59.10058        -0.11663
C         40.22138        61.24055        -0.24056
C         38.98277        60.50771        -0.26691
C         40.22477        62.65266        -0.33474
C         39.00973        63.37107        -0.60107
C         40.24726        65.52612        -0.53841
C         39.04803        64.77541        -0.73338
C         40.22941        66.97516        -0.47745
C         39.01145        67.70958        -0.63328
C         40.18163        69.84658        -0.17888
C         38.96913        69.10451        -0.48850
C         40.17520        71.23042        -0.12734
C         38.98363        72.00371        -0.61245
C         40.20048        74.11761        -0.18691
C         38.91033        73.38434         0.05919
C         42.84404        36.86994        -3.63733
C         42.82512        38.03707        -2.84373
C         41.63362        38.81818        -2.72971
C         42.64856        40.20753        -0.91104
C         41.55481        39.95193        -1.92178
C         42.74845        41.64197        -0.44071
C         41.63466        42.61676        -0.74727
C         42.60898        44.14763         0.96977
C         41.51454        43.74013         0.26963
C         42.65566        45.43721         1.77332
C         41.33307        46.20340         1.72681
C         42.63585        48.44562         1.76213
C         41.35652        47.70845         1.78485
C         42.61114        49.88546         1.74303
C         41.39274        50.63080         1.69179
C         42.63278        52.73522         1.57819
C         41.38961        52.05038         1.60511
C         42.63595        54.21393         1.55815
C         41.34143        54.95274         1.32734
C         42.68980        56.94978         0.43295
C         41.36388        56.32160         0.77801
C         42.64281        58.44303         0.64192
C         41.44176        59.14252         0.15437
C         42.68812        61.27604         0.10297
C         41.45040        60.52438         0.01444
C         42.69076        62.64292        -0.05777
C         41.45805        63.38755        -0.23756
C         42.73002        65.53939        -0.38127
C         41.45616        64.79100        -0.34243
C         42.71908        67.02678        -0.27177
C         41.42105        67.72348        -0.19640
C         42.68056        69.84769         0.07502
C         41.42326        69.11259        -0.03666
C         42.68302        71.26935         0.07176
C         41.38971        71.99736         0.34327
C         42.64842        74.10564        -0.30798
C         41.39839        73.44817        -0.10667
C         45.22859        34.10720        -4.55699
C         44.06499        34.91913        -4.54671
C         45.30677        36.74838        -3.42937
C         44.03705        36.15060        -3.87997
C         45.26800        37.81977        -2.41753
C         44.01673        38.45814        -2.15528
C         45.12449        40.02624        -0.64464
C         43.98353        39.59915        -1.28390
C         45.11264        41.27707         0.13706
C         43.85242        42.05889         0.21609
C         45.04310        44.23694         0.57665
C         43.88934        43.34197         1.01976
C         45.07381        45.64831         1.03715
C         43.87842        46.29352         1.39027
C         45.10784        48.42081         1.52209
C         43.86948        47.71892         1.58573
C         45.13433        49.85075         2.01618
C         43.84641        50.60312         1.73802
C         45.13210        52.71451         1.49381
C         43.84285        51.99829         1.63454
C         45.14462        54.18848         1.35357
C         43.88819        54.95695         1.31652
C         45.19309        57.01191         0.97281
C         43.92132        56.28549         1.01070
C         45.21245        58.40272         0.76646
C         43.94257        59.16531         0.70155
C         45.19734        61.29743         0.59533
C         44.00622        60.53165         0.06957
C         45.15337        62.66357         0.63252
C         43.98920        63.35670         0.02605
C         45.05528        65.58183         0.76522
C         44.01159        64.83731        -0.05758
C         45.10113        67.05627         0.47456
C         43.95581        67.72865         0.15794
C         45.15327        69.88887         0.24311
C         43.91839        69.17263         0.15578
C         45.14222        71.30613         0.05700
C         43.88937        71.98735        -0.01289
C         45.11199        74.10507        -0.37789
C         43.87955        73.43106        -0.21153
C         46.40857        34.49444        -3.96651
C         47.69880        36.25070        -2.62070
C         46.58765        35.85851        -3.47813
C         47.68664        37.47751        -1.94334
C         46.43156        38.17851        -1.73885
C         47.63583        40.07572        -0.79622
C         46.40021        39.22370        -0.65641
C         47.54755        41.57181        -0.76462
C         46.38759        42.08176         0.06760
C         47.59189        44.29915         0.30975
C         46.31474        43.57837         0.15015
C         47.57222        45.65128         0.72780
C         46.32169        46.33727         0.99267
C         47.58972        48.42562         1.29519
C         46.32915        47.73780         1.27222
C         47.60228        49.91455         1.11314
C         46.38450        50.61331         1.64497
C         47.65791        52.71432         1.59077
C         46.41137        51.98354         1.68111
C         47.66770        54.17087         1.77056
C         46.37990        54.94557         1.67281
C         47.65974        57.02262         1.21979
C         46.41505        56.35495         1.27843
C         47.66365        58.42122         0.93770
C         46.43475        59.11719         0.78267
C         47.65517        61.24355         0.71297
C         46.44011        60.56217         0.74115
C         47.69505        62.70038         0.89669
C         46.35909        63.45322         0.93503
C         47.59112        65.59203         0.58501
C         46.38582        64.89789         0.68793
C         47.61547        67.02684         0.55913
C         46.34964        67.77813         0.91078
C         47.61364        69.90002         0.38275
C         46.37598        69.20930         0.44920
C         47.60730        71.32657         0.12067
C         46.37439        72.01306        -0.02304
C         47.58077        74.10095        -0.51200
C         46.35383        73.43308        -0.29504
C         48.88263        38.06596        -1.44811
C         50.07775        40.18727        -0.94923
C         48.87350        39.44232        -1.06206
C         50.07277        41.55983        -0.56393
C         48.83851        42.24682        -0.35874
C         50.06115        44.29189         0.26010
C         48.82141        43.59683         0.07820
C         50.06598        45.65632         0.67333
C         48.81493        46.33858         0.92294
C         50.06906        48.44801         1.49021
C         48.79572        47.73033         1.23445
C         50.10335        49.93352         1.50927
C         48.90145        50.61568         1.43807
C         50.14057        52.76801         1.61022
C         48.89034        52.04547         1.52181
C         50.12987        54.17451         1.61769
C         48.92203        54.90849         1.56933
C         50.15352        57.00355         1.15199
C         48.90365        56.30857         1.37705
C         50.13120        58.41230         0.83581
C         48.90522        59.11879         0.80632
C         50.09851        61.23157         0.38236
C         48.89860        60.53366         0.61127
C         50.03937        62.66378        -0.09328
C         48.87590        63.46210         0.47282
C         50.01136        65.59449        -0.07512
C         48.82139        64.83127         0.37044
C         50.04230        67.04293         0.17868
C         48.83845        67.74826         0.45452
C         50.11344        69.98974         0.70566
C         48.83885        69.19229         0.48360
C         50.08667        71.36557         0.07588
C         48.83608        72.02879        -0.06630
C         50.04567        74.06886        -0.73362
C         48.80895        73.41687        -0.43689
C         51.28780        42.26079        -0.38468
C         52.52573        44.33261         0.10528
C         51.30201        43.62199        -0.00695
C         52.54229        45.69132         0.45567
C         51.30533        46.33982         0.74840
C         52.54906        48.58238         0.84037
C         51.35892        47.72825         1.23088
C         52.64520        49.85066         1.71030
C         51.35358        50.64082         1.61955
C         52.66314        52.77407         1.65810
C         51.38465        52.03452         1.64074
C         52.64243        54.14814         1.64914
C         51.38612        54.94470         1.88904
C         52.60361        56.97701         0.91271
C         51.37134        56.32445         1.25493
C         52.58164        58.39810         0.59099
C         51.34689        59.11542         0.61957
C         52.56399        61.24917         0.26531
C         51.32756        60.53298         0.39849
C         52.54176        62.69884         0.10491
C         51.36116        63.38548         0.03309
C         52.57941        65.62615        -0.14728
C         51.32593        64.84824        -0.20684
C         52.54846        66.98694        -0.25501
C         51.32614        67.72439         0.14086
C         52.58435        69.95533        -0.06935
C         51.40455        69.21545         0.39406
C         52.56947        71.34607        -0.17176
C         51.28355        72.04118        -0.19639
C         52.51054        74.05705        -1.16059
C         51.25058        73.39802        -0.64959
C         53.78183        46.42104         0.57692
C         55.04646        48.51774         0.85354
C         53.83502        47.78826         0.81524
C         55.09353        49.91511         1.05738
C         53.88600        50.66458         1.38654
C         55.27848        52.73450         1.74610
C         53.92651        52.02623         1.55632
C         55.16729        54.21594         1.45220
C         53.89811        54.96507         1.72866
C         55.05500        56.88772         0.51416
C         53.80975        56.27129         0.96360
C         55.06409        58.40817         0.32246
C         53.77975        59.12264         0.44001
C         55.06270        61.26526         0.43006
C         53.76921        60.53831         0.32959
C         55.07757        62.74459         0.32494
C         53.83588        63.43038        -0.19855
C         55.11912        65.57583        -0.04697
C         53.82473        64.88228         0.28166
C         55.10208        67.00309        -0.38512
C         53.79973        67.72866        -0.55932
C         55.07007        69.90418        -0.20579
C         53.78433        69.25381        -0.66914
C         55.03305        71.30703        -0.04308
C         53.81144        72.07380        -0.26981
C         54.94915        74.22926        -0.92172
C         53.81421        73.44853        -0.67052
C         56.28706        50.62324         0.81477
C         57.67640        52.55594         0.61563
C         56.44646        52.01331         1.03327
C         58.13883        53.89849         0.84358
C         56.30993        55.02507         1.46056
C         57.58801        56.93611         0.37401
C         56.34180        56.27975         0.85485
C         57.62060        58.40560         0.50257
C         56.32275        59.14575         0.75638
C         57.59483        61.28388         0.33650
C         56.32488        60.50942         0.06093
C         57.55165        62.72674         0.19212
C         56.37109        63.44000         0.09187
C         57.55989        65.62380        -0.19608
C         56.33980        64.88655        -0.07412
C         57.56338        67.04808        -0.12953
C         56.34356        67.76731        -0.19803
C         57.54077        69.88189         0.12599
C         56.29927        69.18477        -0.07612
C         57.52126        71.31756         0.22103
C         56.25025        71.92994         0.32203
C         57.51284        74.14528        -0.92586
C         56.24940        73.91775        -0.41123
C         59.00055        54.69252         0.13357
C         60.12228        57.03824         0.25963
C         58.91324        56.19979         0.13889
C         60.07723        58.41516         0.32270
C         58.79649        59.11482         0.39538
C         60.04779        61.28884         0.72206
C         58.77474        60.57808         0.46490
C         60.07338        62.78798         0.51565
C         58.83825        63.41785        -0.02111
C         60.09227        65.64731        -0.00018
C         58.84020        64.91503        -0.24597
C         60.06293        67.05035         0.06318
C         58.80236        67.76294         0.00205
C         60.01387        69.88527         0.43779
C         58.76398        69.16377         0.16056
C         59.98511        71.45239         0.32837
C         58.70097        72.11426         0.07638
C         59.94788        74.06326        -0.72105
C         58.70630        73.44898        -0.46873
C         61.30633        59.20398         0.40437
C         62.61239        61.32660         0.81136
C         61.32010        60.54935         0.60957
C         62.57046        62.80756         0.44362
C         61.34808        63.50250         0.29943
C         62.55039        65.64072         0.12168
C         61.32391        64.91747         0.11192
C         62.53694        67.06753         0.09882
C         61.29774        67.77781         0.13062
C         62.49927        69.92872         0.16409
C         61.29811        69.19825         0.21857
C         62.47244        71.37450         0.01133
C         61.24516        72.08446        -0.04828
C         62.42557        74.10517        -0.77099
C         61.21088        73.43573        -0.50323
C         63.77193        63.51210         0.33558
C         65.00368        65.65986         0.13968
C         63.79486        64.93055         0.18792
C         65.00998        67.07612         0.06903
C         63.76122        67.78973         0.08704
C         64.97499        69.91987         0.00209
C         63.75062        69.21696         0.07713
C         64.95823        71.38772        -0.00384
C         63.67987        72.08470        -0.19940
C         64.88819        74.11449        -0.96959
C         63.66885        73.45687        -0.59486
C         66.21565        67.80974        -0.03727
C         67.41829        69.92726        -0.44507
C         66.21450        69.21963        -0.11460
C         67.43019        71.29197        -0.73054
C         66.24782        72.11567        -0.40819
C         67.27542        74.02291        -1.60355
C         66.12000        73.46197        -0.99897
C         68.53312        71.94064        -1.34613
C         68.45170        73.27940        -1.73878
O         47.07713        63.09740         2.17020
O         40.14328        49.23295         0.18415
O         59.95180        62.22605         1.86347
O         29.78253        61.75346        -2.46511
O         55.10470        57.53672        -0.81425
O         65.83373        72.02787         0.98958
O         51.70896        68.31428         1.53321
O         60.00640        70.73298         1.60855
O         44.47364        64.05850        -1.20019
O         29.22791        71.66078         1.05595
O         50.85105        47.85836         2.59006
O         41.89956        54.82204         2.69035
O         46.06773        41.33024         1.25931
O         32.15543        69.51917        -2.73114
O         41.08649        46.89325         3.01192
O         42.87817        66.36736        -1.58947
O         50.52782        65.19664        -1.41938
O         27.76676        63.05502        -1.61415
O         54.44770        67.18223        -1.77411
O         58.03512        56.56375        -0.99245
O         35.62571        61.10649         0.82527
O         58.99099        63.94011        -1.37389
O         46.92925        54.63205         2.98558
O         45.24345        53.35771         0.13106
O         32.29570        65.09599         0.10461
O         36.11066        65.05434        -2.80594
O         36.92345        49.83524         3.13700
O         43.14047        59.00383         1.91362
O         33.71049        60.58079        -2.39161
O         45.37051        44.13712        -0.85035
O         55.06598        62.10098         1.64105
O         38.17031        66.31981        -2.40971
O         56.21581        73.22227         0.82848
O         33.26209        63.00043         0.02590
O         31.51166        72.92915        -2.68187
O         29.68889        70.65013        -2.34617
O         34.98877        70.43869         0.59193
O         46.28454        36.91298        -4.47901
O         57.50969        54.50273         1.95503
O         38.92867        51.50410         2.97136
O         31.48003        63.52836        -3.10094
H         30.96126        62.78428        -3.48867
O         42.05190        43.28036        -1.99146
H         42.94917        43.65552        -1.85133
O         50.12833        70.24736         2.14492
H         50.52639        69.44655         2.56173
O         53.70395        64.80920         1.73574
H         53.70527        65.72045         2.09725
O         42.88278        45.09706         3.17335
H         42.41049        45.78322         3.70575
O         33.68297        64.67519        -3.16060
H         34.54039        64.57243        -3.63559
O         44.15514        42.92045         2.37537
H         43.75506        43.57691         2.99485
O         54.03400        55.34777         3.17337
H         54.32235        54.53084         3.64415
O         38.75679        73.13934         1.48776
H         38.88051        73.98693         1.96208
O         46.45985        38.54190         0.64973
H         46.40197        39.25168         1.33138
O         46.28525        67.82319         2.38820
H         45.77577        67.02872         2.67866
O         47.46487        50.05150        -0.36313
H         47.30700        51.00107        -0.55882
O         27.75056        75.48872        -0.55934
H         27.51115        75.25381        -1.47909
O         39.21681        72.26953        -2.03243
H         39.26513        71.40920        -2.50046
O         52.49185        73.99066        -2.60515
H         52.52375        73.04547        -2.86213
O         52.28505        49.00248        -0.52577
H         53.09440        49.43217        -0.87455
O         63.69935        60.68036         0.14652
H         63.53680        60.71291        -0.81821
O         33.91574        51.97900         2.88507
H         34.75886        51.56225         3.17628
O         24.58689        64.90313         1.27240
H         24.35320        64.84116         0.32360
O         28.61580        58.63766        -1.94646
H         29.30253        59.02315        -2.53790
O         56.26147        60.25793        -1.36085
H         56.29483        61.11448        -1.83610
O         37.04064        50.42566        -0.43674
H         36.42442        50.83247        -1.08088
O         38.54159        45.78297         2.89055
H         39.26292        46.17387         3.43575
O         41.30292        72.02492         1.81301
H         42.12281        72.44771         2.14569
O         31.30067        59.73587        -2.77539
H         32.21377        59.60529        -3.12634
O         49.77102        62.57272        -1.53512
H         49.87912        63.48878        -1.89547
O         45.20445        49.73903         3.48871
H         44.38180        49.29746         3.79069
O         56.17448        59.33945         2.18114
H         56.74620        60.08582         2.46077
O         44.27888        60.27545        -1.34435
H         44.41437        61.14006        -1.78842
O         35.88447        47.46438         2.82462
H         36.17245        48.32006         3.28006
O         42.85190        56.76175        -1.01110
H         42.05131        57.13869        -1.45946
O         51.35391        55.20653         3.33941
H         52.25674        55.53748         3.58049
O         55.55273        52.65572         3.18895
H         56.44705        53.04646         3.31784
O         53.99565        63.41951        -1.63837
H         53.27184        63.94807        -2.03770
O         40.41648        58.02112        -1.68331
H         40.43711        58.88004        -2.15892
O         53.68217        69.56880        -2.10082
H         54.14450        68.83228        -2.57103
O         52.84990        49.41841         3.07723
H         52.88887        50.21351         3.64804
O         42.21294        39.46385         0.28191
H         42.21715        38.50969         0.05582
O         47.25462        42.01615        -2.13692
H         48.01740        41.76695        -2.70061
O         44.61560        65.48681         2.17584
H         45.04111        64.69789         2.57920
H         23.11174        75.16641         0.99538
H         25.54884        75.21016         0.46926
H         28.36241        74.60424         1.18638
H         30.25756        75.34697        -0.94234
H         32.85407        75.31077        -0.87369
H         35.28780        75.23902        -0.74582
H         37.66682        75.23208        -0.31497
H         40.18260        75.19111        -0.43494
H         42.64410        75.17738        -0.55950
H         45.10332        75.18642        -0.58174
H         47.57466        75.17259        -0.76109
H         50.02622        75.11641        -1.06969
H         52.49067        75.14613        -0.90056
H         54.82857        75.11901        -1.55878
H         57.63402        74.85127        -1.76066
H         59.94911        75.08396        -1.13278
H         62.40219        75.14414        -1.12984
H         64.81841        75.13728        -1.36948
H         67.23016        75.05050        -1.99174
H         22.42718        69.28110         1.75213
H         21.14091        71.40721         1.82689
H         21.06567        73.88428         1.60177
H         26.14207        65.50220         2.46914
H         23.73185        67.17684         1.74746
H         27.15188        60.65876         0.47836
H         26.16049        62.91721         1.23890
H         29.34580        56.47941         0.30756
H         28.17867        58.56058         0.07607
H         31.73384        52.25735         1.04514
H         30.54426        54.35962         0.63886
H         34.16131        47.96201         0.89108
H         32.99070        50.06258         0.93625
H         36.91143        44.01634        -0.54212
H         35.56923        45.93899         0.17276
H         39.46638        40.37241        -2.33131
H         38.19485        42.13888        -1.26761
H         41.90416        36.51202        -4.08382
H         40.77164        38.54622        -3.35882
H         45.14654        33.09128        -4.96954
H         43.12772        34.50821        -4.94856
H         47.22556        33.77170        -3.82757
H         48.58984        35.60626        -2.56833
H         49.84247        37.54980        -1.59427
H         51.04104        39.68111        -1.10622
H         52.24068        41.74243        -0.56771
H         53.47152        43.80769        -0.09320
H         54.72186        45.85850         0.46744
H         55.99128        47.98539         0.66287
H         57.14659        50.06121         0.41655
H         58.32639        51.89054         0.02368
H         59.53170        54.26054        -0.72919
H         61.09805        56.53281         0.32652
H         62.26491        58.66860         0.31944
H         62.84767        61.28060         1.91242
H         64.72282        62.96564         0.41954
H         65.96168        65.11994         0.16470
H         67.17057        67.26773        -0.10428
H         68.33074        69.33793        -0.62320
H         69.44884        71.36584        -1.54534
H         69.32400        73.74727        -2.21677
