         261
 CSIRO Nanostructure Databank - Neutral Graphene Oxide Data Set
C        -11.20240         0.75416         0.48949
C        -10.46066         1.72418        -0.32606
C         -8.85186         0.69846        -1.47557
C         -7.70707         1.45217        -0.87561
C         -6.42165         0.67193        -0.77436
C         -5.11017         1.34995        -0.42527
C         -3.81469         0.72914        -0.89307
C         -2.53950         1.53234        -0.94449
C         -1.20022         0.80787        -0.98060
C          0.07414         1.52942        -0.64714
C          1.23030         0.76978         0.03239
C          2.57787         1.44722        -0.22350
C          3.81783         0.67472         0.14744
C          5.09610         1.41548         0.31824
C          6.41254         0.69554         0.37874
C          7.69436         1.48276         0.50976
C          8.99878         0.76214         0.27202
C         10.12216         1.51333        -0.41540
C         11.18589         0.71373        -1.06379
C         -9.97901         2.93336         0.07787
C         -9.02453         3.73303        -0.82093
C         -7.66047         2.97663        -0.89091
C         -6.33123         3.62062        -0.59769
C         -5.13833         2.80853        -0.14522
C         -3.82981         3.51714         0.14554
C         -2.56086         2.97287        -0.45093
C         -1.29879         3.69027        -0.08537
C          0.03692         3.02533        -0.33955
C          1.31616         3.71787         0.02390
C          2.60248         2.93118        -0.04617
C          3.86506         3.57902         0.43346
C          5.11554         2.87867         0.00963
C          6.38686         3.62337         0.00209
C          7.70075         3.02099         0.43543
C          8.80012         3.64960        -0.41031
C          9.88819         2.90726        -0.84052
C         -8.98719         5.22002        -0.41900
C         -8.08201         6.02272         0.12915
C         -5.99166         5.10102        -0.53695
C         -5.24972         5.62308         0.69649
C         -3.87074         4.90502         0.70631
C         -2.61730         5.72091         1.03768
C         -1.31399         4.91954         0.79853
C         -0.03151         5.67461         0.98523
C          1.31013         5.00431         0.80184
C          2.58821         5.73209         1.10669
C          3.90716         5.00233         0.88219
C          5.13806         5.77718         0.52335
C          6.47187         5.04566         0.50929
C          7.56851         5.81802        -0.19298
C          8.66499         5.04134        -0.68057
C         -7.61108         7.11619         0.74289
C         -6.43077         7.95461         0.22794
C         -5.15101         7.15318         0.62904
C         -3.84828         7.87519         0.54347
C         -2.56897         7.10457         0.43226
C         -1.28064         7.85581         0.49309
C         -0.05718         7.18451         1.08126
C          1.23164         7.95414         1.21902
C          2.58830         7.24047         1.26856
C          3.87490         7.99301         1.03582
C          5.10095         7.26480         0.51810
C          6.43399         8.01784         0.44758
C          7.50133         7.19446        -0.25295
C         -6.24996         9.35289         0.80351
C         -5.07855        10.00054         0.67082
C         -3.84845         9.32908         0.08235
C         -2.50681        10.00632         0.36457
C         -1.32721         9.34513         0.45496
C          0.00498        10.00886         0.14015
C          1.26154         9.49678         0.90701
C          2.50427         9.79593         0.12824
C          3.84369         9.56181         0.75036
C          4.99222         9.97599        -0.14882
C          6.16123         9.33263        -0.25097
C        -11.25579        -0.61798         0.46733
C        -10.54226        -1.63255        -0.31139
C         -8.86411        -0.65082        -1.45316
C         -7.65636        -1.49679        -1.32017
C         -6.35388        -0.76958        -1.20343
C         -5.09136        -1.52509        -0.84916
C         -3.79000        -0.77480        -0.79671
C         -2.50745        -1.49087        -1.12444
C         -1.22405        -0.70969        -1.06531
C          0.00728        -1.47583        -0.64904
C          1.25325        -0.76738        -0.18722
C          2.61536        -1.54235        -0.11171
C          3.85917        -0.72024        -0.40460
C          5.17807        -1.39290        -0.65276
C          6.39391        -0.78269         0.02000
C          7.68852        -1.52049         0.05641
C          8.99034        -0.75184         0.23581
C         10.21566        -1.44727        -0.30223
C         11.26275        -0.62832        -0.95755
C        -10.21111        -2.88337         0.15268
C         -9.04679        -3.65685        -0.33778
C         -7.80589        -2.76608        -0.41916
C         -6.33497        -3.71258        -1.41006
C         -5.04930        -2.98585        -1.21729
C         -3.78212        -3.75621        -1.02811
C         -2.48535        -2.99762        -0.95383
C         -1.19081        -3.70844        -1.24938
C          0.07923        -2.93019        -1.04599
C          1.33982        -3.63763        -0.63199
C          2.61242        -2.87812        -0.86531
C          3.90030        -3.61936        -1.07530
C          5.23477        -2.88216        -0.97962
C          6.55065        -3.62120        -0.95404
C          7.83980        -2.87538        -0.63643
C          8.95576        -3.62397         0.02201
C          9.92219        -2.83875        -0.83692
C         -8.94221        -5.01029        -0.12179
C         -7.74806        -5.85895        -0.22111
C         -6.68140        -5.65860        -1.27732
C         -5.15171        -5.98984        -0.93993
C         -3.83176        -5.25471        -1.19192
C         -2.50456        -5.97335        -0.94810
C         -1.19158        -5.21662        -1.09824
C          0.07801        -5.87913        -0.66009
C          1.36012        -5.10727        -0.49546
C          2.55194        -5.89689        -1.02383
C          3.91924        -5.14510        -1.04566
C          5.20893        -5.86249        -0.72964
C          6.52987        -5.10625        -0.60972
C          7.60310        -5.62591         0.37201
C          8.86938        -4.85214         0.55753
C         -7.65209        -7.05537         0.43333
C         -6.32807        -7.72341         0.63770
C         -5.06133        -7.11755         0.07268
C         -3.75635        -7.85430         0.29130
C         -2.49518        -7.33391        -0.32611
C         -1.24369        -7.87537         0.31550
C          0.04150        -7.12867         0.17229
C          1.40555        -7.76874         0.50403
C          2.57454        -7.32764        -0.42889
C          3.85619        -8.03178        -0.14548
C          5.16553        -7.27990        -0.17826
C          6.14336        -7.59859         0.98366
C          7.15568        -6.62085         1.32335
C         -6.24137        -9.16039         0.99768
C         -5.09441        -9.87894         0.99978
C         -3.75365        -9.26707         0.80979
C         -2.50867       -10.13068         0.55853
C         -1.19984        -9.34063         0.57753
C          0.00821        -9.95583         0.69642
C          1.30904        -9.28934         0.60138
C          2.46696        -9.98438         0.71862
C          3.85581        -9.38851         0.59264
C          4.58131        -9.29227         1.91278
C          5.66108        -8.50922         2.04993
O         -5.24069         1.82833         0.93650
O          0.75561         3.85481        -1.30996
O          4.48830        -0.66831        -1.71388
O          4.03211         3.92239         1.84341
O          0.37571         7.71102         2.37117
O          6.29647        -8.12164        -0.40111
O         -3.12713        -3.46586         0.25858
O         -0.25379         1.26185        -2.01656
O         -1.77512         7.24680        -0.77125
O          7.02784         0.95261         1.67805
O         -3.34908         1.30607        -2.14105
O         -7.02029        -5.92052        -2.43919
O          5.76874         3.26751        -1.24839
O         -0.34031        -5.92342        -2.04516
O         -0.77164        -6.98750         1.37648
O          3.14239        -3.01368        -2.19063
O          2.74764         2.30391        -1.36652
O         -6.82130        -1.22138        -2.51186
O          5.98596        -3.18533        -2.20648
O         -1.83296        -1.09110        -2.33751
O          4.73146        -5.73336        -2.10637
O         -7.34268         0.80849         0.37551
O          6.78157        -1.59602         1.18512
O         -4.51642         7.68162         1.82892
O         -0.63557         4.86272         2.06630
O         -6.77300         3.34589        -1.97959
O          1.88939         4.98732         2.13995
O          4.86513         6.52064        -0.71655
O          1.82936        -7.33874         1.76925
O          9.97464        -1.34516         1.13074
O          0.30485        -1.35144         0.77215
O          7.81591         3.57112         1.80373
O         -0.41463        -3.22881        -2.37570
O         -5.75719        -3.30714        -2.49156
O         -7.22799        -2.62900         0.67623
O         -5.53182        -6.72519         1.39660
O          8.77825        -2.64634        -1.78635
O        -10.08667        -1.31508        -1.61304
O          3.14322        -8.23835        -1.41854
O         10.07075         1.32472         1.05724
O         -3.80015         3.74998         1.59344
O          3.45700         7.66796         2.37126
O         -1.97163         3.94085        -1.36480
O          6.92502         4.78105         1.88520
O        -10.10443         1.31338        -1.63120
O         -5.87975         5.69113        -1.60800
O         -4.46187        -1.22305         0.41604
O          4.27844         1.00229         1.47602
O         -3.51536        -8.14447         1.70134
O         -2.46926        -7.21267        -1.75700
O          7.57962        -5.95762        -1.08858
O          1.39060        -4.27957         0.69600
O         -4.50714        -5.97983        -2.23855
O          6.90542         8.29563         1.78344
H          7.15381         7.45074         2.21487
O          2.79208        -1.88289         1.28044
H          1.96993        -2.32761         1.59582
O          4.01370        10.23089         1.99108
H          3.14024        10.24276         2.45193
O         -5.95830         5.25233         1.87829
H         -5.43321         5.56506         2.64633
O          1.30219        10.14983         2.18980
H          0.79998         9.59024         2.82649
O         -3.94066         9.34592        -1.36225
H         -3.26912         8.72151        -1.71484
O          2.20661        -6.04657        -2.40790
H          2.93086        -6.55435        -2.83871
O         -6.52708         8.17009        -1.17543
H         -6.52810         7.30936        -1.65404
O          4.62301       -10.29381        -0.23294
H          4.33165       -10.15950        -1.16058
O          0.96848         0.99237         1.43668
H          1.56943         0.43318         1.97567
O         -9.53288         3.72797        -2.16144
H         -8.80009         3.98361        -2.76205
O         -2.64457       -10.77816        -0.71805
H         -2.53290       -10.11236        -1.42862
O          0.23091         9.74235        -1.25103
H         -0.57273         9.98768        -1.75445
O         -2.72340         5.97388         2.44676
H         -2.67924         5.11170         2.91499
H         12.07274        -1.16796        -1.47169
H         11.94876         1.25855        -1.63993
H         10.65179         3.38859        -1.47038
H          9.47342         5.55206        -1.22475
H          8.33751         7.74709        -0.70994
H          6.96079         9.75292        -0.88073
H          4.86178        10.93370        -0.67591
H          2.42467         9.69151        -0.96622
H         -0.07198        11.11796         0.30941
H         -2.48511        11.10404         0.25690
H         -4.97856        11.03665         1.02947
H         -7.11812         9.86766         1.24242
H         -7.88058         7.25896         1.80710
H         -9.89006         5.73588        -0.80658
H        -10.18905         3.30831         1.08942
H        -11.74416         1.21815         1.33142
H        -11.82384        -1.05986         1.30474
H        -10.68849        -3.24691         1.07832
H         -9.84529        -5.52649         0.24948
H         -8.47903        -7.39901         1.07752
H         -7.19617        -9.68580         1.15414
H         -5.13916       -10.96387         1.17873
H         -2.46502       -10.94443         1.32567
H          0.03582       -11.04588         0.85926
H          2.43323       -11.07827         0.84719
H          4.24647        -9.92066         2.74998
H          6.19695        -8.46245         3.01001
H          7.52527        -6.56487         2.35685
H          9.76582        -5.42172         0.84605
H         10.78487        -3.37011        -1.29816
