         210
 CSIRO Nanostructure Databank - Neutral Graphene Oxide Data Set
C         30.40282        31.95140         0.35851
C         30.44949        33.16923         0.03433
C         30.47164        36.20538        -0.83007
C         30.39012        37.44215        -0.90427
C         30.49007        40.56749        -0.66755
C         30.42743        41.79615        -0.40841
C         32.77256        29.12506         0.63815
C         31.68221        29.72402         0.69318
C         32.75744        31.75490        -0.05898
C         31.51933        31.09962         0.34442
C         32.74888        33.14386        -0.38180
C         31.56179        33.93586        -0.35217
C         32.80119        36.02186        -0.87143
C         31.59289        35.32827        -0.69213
C         32.84829        37.48817        -1.09186
C         31.54009        38.31167        -1.17375
C         32.81127        40.35901        -0.40629
C         31.59645        39.71455        -0.77100
C         32.81581        41.74866        -0.01440
C         31.57756        42.52954        -0.04250
C         32.83354        44.34711         0.72661
C         31.73582        43.88336         0.32995
C         35.46102        27.48808         0.61737
C         35.23393        28.83794         0.23505
C         34.06948        29.57566         0.26157
C         35.22597        31.63352        -0.40046
C         34.02449        31.00535        -0.09739
C         35.25654        33.02100        -0.90347
C         33.97654        33.82073        -0.87793
C         35.26049        35.99755        -0.83761
C         34.05164        35.30952        -0.84102
C         35.28965        37.45058        -0.66122
C         34.07463        38.20434        -0.69334
C         35.28499        40.24153        -0.05489
C         34.05683        39.59035        -0.40415
C         35.29554        41.59938         0.41279
C         34.04230        42.34584         0.46037
C         35.21224        44.25723         1.60598
C         34.05670        43.68986         0.93154
C         35.44943        45.69419         1.76330
C         37.75153        27.20203        -0.01869
C         36.48222        26.78359         0.51784
C         37.82704        28.65897        -0.11862
C         36.52583        29.40569        -0.26242
C         37.77206        31.65728        -0.34735
C         36.50776        30.89903        -0.51214
C         37.79652        33.02784        -0.49823
C         36.57317        33.74397        -0.96192
C         37.79986        35.95557        -0.58022
C         36.54930        35.25797        -0.92805
C         37.79564        37.43517        -0.87836
C         36.50918        38.13753        -0.49970
C         37.76470        40.21377         0.03154
C         36.51894        39.52432        -0.17789
C         37.77767        41.55495         0.48024
C         36.53273        42.20634         0.74969
C         37.86104        44.23046         1.57157
C         36.57725        43.49420         1.45685
C         37.88999        45.60982         1.93207
C         36.57030        46.13745         2.07011
C         40.39955        24.66007        -0.11392
C         39.20102        25.04913        -0.11983
C         40.55372        27.46335        -0.32625
C         38.73811        26.34074        -0.49688
C         40.30293        28.80174         0.06954
C         39.02116        29.41351        -0.07845
C         40.25730        31.67089         0.06994
C         38.94909        30.91674         0.25417
C         40.23742        33.10454        -0.09278
C         39.01272        33.79447        -0.31557
C         40.24532        35.95875        -0.34134
C         38.99174        35.23742        -0.41280
C         40.26080        37.39168        -0.39789
C         39.03486        38.14537        -0.42873
C         40.25312        40.23989         0.00526
C         39.01732        39.51432        -0.14145
C         40.28191        41.56129         0.44157
C         39.03403        42.23336         0.75166
C         40.40089        44.12478         1.70592
C         39.06650        43.54789         1.25214
C         40.41251        45.63621         1.96651
C         39.09454        46.33206         2.06622
C         40.31767        48.44321         2.07577
C         39.29594        47.69587         2.21586
C         42.85847        24.75234         0.79724
C         41.64789        25.24769         0.20670
C         42.61792        27.45392         0.99351
C         41.61958        26.67850         0.19961
C         42.64910        28.91326         0.77312
C         41.48865        29.56792         0.43545
C         42.72587        31.72295         0.31062
C         41.46611        31.01354         0.26384
C         42.71645        33.14919         0.14628
C         41.47235        33.82704        -0.05590
C         42.70958        35.96241        -0.23515
C         41.46774        35.25223        -0.21184
C         42.71241        37.38055        -0.38090
C         41.48216        38.08335        -0.39577
C         42.77304        40.21081        -0.21079
C         41.47123        39.57831        -0.58285
C         42.83686        41.55594         0.43735
C         41.53799        42.30469         0.50130
C         42.81864        44.40816         0.75923
C         41.58879        43.63155         0.88896
C         42.85165        45.78969         1.07035
C         41.68007        46.46400         1.71726
C         42.80360        48.57351         1.33279
C         41.57431        47.99242         1.70015
C         43.84398        25.39201         1.21374
C         45.02177        27.64959         2.08599
C         43.83962        26.79947         1.63342
C         45.16440        28.98484         1.30418
C         43.99151        29.54409         0.52853
C         45.18130        31.74429         0.51224
C         43.94127        31.04742         0.50871
C         45.19028        33.16372         0.31742
C         43.94489        33.85756         0.15547
C         45.16561        35.99062        -0.14920
C         43.94757        35.27714        -0.06864
C         45.16241        37.36123        -0.44987
C         43.95144        38.07865        -0.51434
C         45.19457        40.26372        -0.48226
C         43.95919        39.52961        -0.43760
C         45.19100        41.66676        -0.38334
C         44.02361        42.37103        -0.00730
C         45.17173        44.55182        -0.08041
C         43.99796        43.78220         0.18898
C         45.17758        45.93662         0.22562
C         44.02280        46.55704         0.74994
C         43.82563        47.94838         0.96001
C         47.41043        27.67130         1.89619
C         46.38281        26.97759         1.95570
C         47.66035        29.01953         1.48689
C         46.36993        29.65738         1.17677
C         47.64195        31.74055         0.62800
C         46.40822        31.04663         0.73660
C         47.64654        33.14588         0.32834
C         46.42594        33.84956         0.24906
C         47.70990        35.96772        -0.29275
C         46.45504        35.35180         0.29170
C         47.71601        37.35426        -0.59599
C         46.43035        38.04824        -0.77602
C         47.72675        40.26768        -0.80098
C         46.43093        39.56225        -0.85664
C         47.72001        41.68444        -0.81914
C         46.41384        42.38965        -0.80246
C         47.71046        44.58352        -0.64255
C         46.37770        43.90542        -0.67330
C         47.50275        45.95166        -0.33383
C         46.45248        46.55127        -0.02338
C         50.18651        29.21535         1.51521
C         48.84845        29.68697         1.32483
C         50.11121        31.77845         0.70208
C         48.89483        31.08730         0.89139
C         50.08782        33.06402         0.08641
C         48.89346        33.80582         0.03343
C         50.13535        35.89963        -0.61833
C         48.89705        35.22066        -0.32385
C         50.14976        37.33185        -0.77900
C         48.92289        38.07272        -0.77993
C         50.16803        40.24856        -0.99784
C         48.93026        39.52719        -0.87844
C         50.18254        41.69127        -1.02634
C         48.93362        42.40977        -0.91930
C         50.20143        44.40556        -0.95507
C         48.88467        43.87547        -0.85972
C         51.31273        29.69448         1.31738
C         52.53221        31.80574         0.41707
C         51.47429        31.19928         1.28284
C         52.47680        32.91592        -0.11767
C         51.29165        33.62738        -0.69189
C         52.45144        35.93501        -0.89955
C         51.33659        35.12478        -0.67594
C         52.48762        37.19460        -1.00055
C         51.37833        38.05552        -0.97428
C         52.49601        40.32002        -1.21916
C         51.38476        39.47991        -1.07937
C         52.57547        41.57956        -1.24663
C         51.45086        42.41275        -1.13884
C         51.29843        43.82840        -1.09503
O         36.73502        34.49291        -2.19972
O         42.65618        27.06555         2.43097
O         34.46508        33.20757        -2.12099
O         41.34606        45.94294         3.05640
O         46.31525        38.73577        -2.07420
O         36.45260        29.93426        -1.63377
O         32.26205        37.96376        -2.36353
O         46.15495        43.24685        -1.96587
O         35.75383        43.48108         2.68177
O         39.71050        26.95906        -1.33236
O         44.81851        28.01443         3.44120
H         44.22812        27.35895         3.86902
O         41.34744        39.81009        -2.04106
H         42.04381        39.28257        -2.48823
O         44.27838        29.13256        -0.87397
H         45.09080        29.60436        -1.15986
O         37.84417        37.50193        -2.35566
H         37.22620        36.82555        -2.71128
O         51.09895        33.20750        -2.05309
H         51.83519        33.56434        -2.59253
O         51.58760        31.68746         2.59397
H         52.43166        31.37831         2.98156
O         40.61956        43.49371         3.01010
H         41.13649        44.13733         3.55165
O         43.10754        41.23348         1.88244
H         42.45914        41.73190         2.42912
O         38.68672        30.95359         1.70676
H         39.46919        30.57222         2.16036
O         46.53583        35.68330         1.73463
H         47.30132        35.19524         2.10754
