         421
 CSIRO Nanostructure Databank - Neutral Graphene Oxide Data Set
C          1.32607         2.16290        -1.32039
C          1.30017         3.56164        -1.24654
C          2.51717         1.45541        -1.20373
C          2.48825         4.29478        -1.05121
C          1.28870         6.51682        -0.86427
C          1.30467         7.89638        -0.81984
C          2.49352         5.76653        -0.92968
C          2.52148         8.63840        -0.80626
C          1.32844        10.83580        -0.97238
C          1.30503        12.17935        -0.82292
C          2.53574        10.06599        -0.76535
C          2.47712        12.92035        -0.23607
C          1.31855        15.19789        -0.42601
C          1.36323        16.55293        -0.38456
C          2.55741        14.38165        -0.70503
C          2.61300        17.27876        -0.38428
C          2.70017        18.62675        -0.72832
C          3.74011         2.14716        -1.01144
C          3.69681         3.56634        -0.93993
C          4.99060         1.44165        -0.95840
C          4.95155         4.29470        -0.70176
C          3.70568         6.48481        -0.90694
C          3.75413         7.90637        -0.82364
C          4.96436         5.73627        -1.08014
C          5.00606         8.60749        -0.72647
C          3.77029        10.77393        -0.61112
C          3.78893        12.18768        -0.47575
C          5.00787        10.03909        -0.58354
C          5.02228        12.89421        -0.44548
C          3.79972        15.03705        -0.10392
C          3.81638        16.54367         0.03842
C          5.06802        14.31088        -0.26848
C          5.15698        17.26493         0.14639
C          3.92793        19.30625        -0.74306
C          5.14453        18.66853        -0.42959
C          6.22955         2.08435        -0.84369
C          6.25062         3.54884        -0.63298
C          7.47009         1.41439        -0.91820
C          7.52394         4.27859        -0.83856
C          6.27697         6.46135        -1.05530
C          6.25187         7.90522        -0.76688
C          7.52386         5.70429        -0.84501
C          7.47305         8.54582        -0.51625
C          6.22643        10.74964        -0.46204
C          6.25981        12.15566        -0.48308
C          7.49311        10.00142        -0.12227
C          7.52540        12.86672        -0.45877
C          6.30033        15.04287        -0.36206
C          6.31896        16.43707        -0.35672
C          7.55299        14.29829        -0.48392
C          7.54587        17.16024        -0.83602
C          6.36560        19.33719        -0.50683
C          7.60153        18.62626        -0.46387
C          8.71031         2.11293        -0.88152
C          8.71326         3.55871        -0.88503
C          9.94187         1.42765        -0.86058
C         10.00430         4.29652        -1.12823
C          8.73663         6.42100        -0.68555
C          8.70373         7.84377        -0.51907
C          9.97403         5.72139        -0.64395
C          9.94657         8.54019        -0.28731
C          8.72791        10.67682        -0.69969
C          8.74077        12.15339        -0.41907
C          9.97648         9.95046        -0.26718
C          9.98138        12.81410        -0.26768
C          8.78829        14.97274        -0.52868
C          8.83514        16.41826        -0.58605
C         10.02109        14.24376        -0.38045
C         10.02946        17.09694        -0.58860
C          8.81986        19.26060        -0.35006
C         10.07638        18.55318        -0.47183
C         11.19036         2.11162        -0.70383
C         11.22089         3.54064        -0.68365
C         12.39565         1.40289        -0.52788
C         12.40661         4.23712        -0.38064
C         11.17001         6.39200        -0.32282
C         11.15728         7.81329        -0.11447
C         12.40295         5.66959        -0.21978
C         12.34951         8.50698         0.24280
C         11.15940        10.63711         0.05645
C         11.18384        12.09144         0.00463
C         12.33040         9.90725         0.38836
C         12.40054        12.78291         0.19101
C         11.26217        14.90271        -0.37375
C         11.32016        16.34368        -0.80783
C         12.46426        14.19958        -0.07371
C         12.50796        17.08226        -0.19062
C         11.27216        19.23280        -0.42875
C         12.59381        18.54584        -0.68406
C         13.62565         2.07977        -0.32806
C         13.62924         3.51354        -0.21556
C         14.84693         1.37865        -0.22138
C         14.84605         4.21134         0.00780
C         13.60309         6.35806         0.11205
C         13.58872         7.76689         0.38301
C         14.83443         5.64018         0.18444
C         14.78020         8.43614         0.70946
C         13.44691        10.65518         1.08394
C         13.59047        12.08047         0.58037
C         14.80388         9.87785         1.21317
C         14.77852        12.77668         0.76770
C         13.70150        14.88192         0.06831
C         13.83754        16.31914        -0.38238
C         14.83573        14.20837         0.57340
C         14.95140        17.05286         0.32478
C         13.77640        19.21455        -0.03683
C         14.89773        18.50619         0.35971
C         16.07364         2.06071        -0.04967
C         16.07368         3.49733         0.05831
C         17.29743         1.35374         0.03734
C         17.31131         4.20028         0.20515
C         16.04160         6.33977         0.44118
C         16.01137         7.73857         0.70350
C         17.29945         5.63535         0.42403
C         17.25092         8.46090         0.96254
C         16.00489        10.60677         0.57600
C         16.03190        12.06715         0.98894
C         17.25940         9.84347         0.94061
C         17.15787        12.74432         1.35957
C         15.99773        14.93015         0.97256
C         16.01745        16.34862         0.88098
C         17.02891        14.19611         1.81497
C         17.12917        17.09885         1.58862
C         16.09235        19.21250         0.73843
C         17.23450        18.53612         1.14366
C         18.52593         2.03532         0.17885
C         18.51484         3.47185         0.21366
C         19.76020         1.33889         0.26190
C         19.79514         4.17186         0.29288
C         18.48077         6.32861         0.72048
C         18.49737         7.71696         1.06288
C         19.78040         5.65365         0.57634
C         19.71744         8.38079         1.32693
C         18.51257        10.57665         1.16498
C         18.47481        12.06019         1.37863
C         19.66204         9.80830         1.81026
C         19.63688        12.62840         2.21267
C         18.37798        14.92770         1.93452
C         18.44874        16.35526         1.54824
C         19.66837        14.16976         2.14135
C         19.66030        17.01144         1.52163
C         18.48650        19.17608         1.14611
C         19.69299        18.45697         1.29094
C         21.00601         2.00270         0.44863
C         21.03029         3.42650         0.55597
C         22.23239         1.29820         0.49665
C         22.24172         4.13393         0.76610
C         20.94666         6.21257         1.35720
C         20.96711         7.71485         1.32088
C         22.25107         5.54820         1.00860
C         22.19025         8.40811         1.40827
C         20.96591        10.55952         1.66581
C         20.94509        11.95827         1.79637
C         22.18501         9.85218         1.51227
C         22.15494        12.68919         1.72699
C         20.94858        14.87029         1.86480
C         20.93282        16.30415         1.67798
C         22.13420        14.13288         1.80388
C         22.12738        17.02042         1.52929
C         20.91241        19.12186         1.12892
C         22.14832        18.42782         1.19776
C         23.46485         1.98593         0.58798
C         23.47366         3.41904         0.73384
C         24.69832         1.29785         0.53235
C         24.69947         4.13266         0.82880
C         23.45020         6.25888         1.12101
C         23.44689         7.69974         1.33262
C         24.69772         5.55781         0.99200
C         24.66507         8.39822         1.40506
C         23.41531        10.56586         1.51197
C         23.39761        11.98775         1.59476
C         24.66771         9.84962         1.49362
C         24.64032        12.70027         1.49826
C         23.42258        14.83082         1.86753
C         23.42131        16.36558         1.74751
C         24.65867        14.11668         1.52630
C         24.65505        17.01932         1.30074
C         23.35833        19.10267         0.99193
C         24.62593        18.43546         1.01512
C         25.92713         1.99167         0.58440
C         25.93119         3.42506         0.73885
C         27.15681         1.30365         0.47944
C         27.16226         4.13376         0.79101
C         25.92513         6.26544         1.07264
C         25.92322         7.68855         1.28934
C         27.16416         5.55915         0.97121
C         27.14952         8.37059         1.38690
C         25.87827        10.55129         1.53945
C         25.88049        11.98413         1.44952
C         27.14417         9.79263         1.89845
C         27.07956        12.71747         1.27301
C         25.84376        14.83934         1.27392
C         25.84746        16.28019         1.16491
C         27.06082        14.11826         1.06477
C         27.06564        16.94965         0.82849
C         25.81603        19.12498         0.82554
C         27.14940        18.45578         0.91136
C         28.38727         1.99494         0.50038
C         28.38905         3.42795         0.65805
C         29.61473         1.30670         0.36747
C         29.62228         4.13667         0.67358
C         28.39867         6.25942         1.04513
C         28.39085         7.68658         1.25262
C         29.63010         5.55187         0.87687
C         29.62261         8.40584         1.22031
C         28.43121        10.55653         1.58249
C         28.38697        12.03494         1.30667
C         29.63879         9.81013         1.17382
C         29.53314        12.67758         0.64867
C         28.23401        14.81289         0.63019
C         28.21433        16.22153         0.50659
C         29.44027        14.06868         0.30445
C         29.49106        16.95011         0.12454
C         28.12956        19.01755        -0.09472
C         29.23255        18.33325        -0.43185
C         30.84676         1.99716         0.36470
C         30.85013         3.42971         0.51505
C         32.07602         1.31431         0.21057
C         32.08083         4.13462         0.51191
C         30.88517         6.23110         0.92184
C         30.93861         7.67994         1.33289
C         32.07760         5.55063         0.71836
C         32.10327         8.41655         0.70654
C         30.79578        10.52890         0.75104
C         30.71767        11.93695         0.44650
C         32.01519         9.82910         0.47864
C         31.84742        12.58203        -0.14848
C         30.48608        14.69876        -0.36880
C         30.34274        16.11729        -0.87669
C         31.67782        13.93188        -0.68360
C         31.66558        16.84718        -1.05295
C         30.26130        18.89995        -1.41371
C         31.62034        18.25832        -1.19931
C         33.29913         2.01164         0.15693
C         33.30688         3.43219         0.30978
C         34.53655         1.32340        -0.06064
C         34.53627         4.15872         0.14865
C         33.39117         6.28183         0.89292
C         33.28909         7.73536         0.48720
C         34.56112         5.56999         0.26150
C         34.47182         8.43308         0.07048
C         33.17302        10.53465         0.05266
C         33.09167        11.93517        -0.25034
C         34.41661         9.85367        -0.09734
C         34.29613        12.67559        -0.54033
C         32.98044        14.72875        -1.02485
C         32.90332        16.19815        -1.00663
C         34.25583        14.06752        -0.76184
C         34.11879        16.93661        -1.01311
C         32.80143        18.99111        -1.24899
C         34.06261        18.35398        -1.12844
C         35.72062         2.01639        -0.25901
C         35.71868         3.46015        -0.22375
C         36.98730         1.33479        -0.41867
C         36.88695         4.18968        -0.55592
C         35.70723         6.28807        -0.12557
C         35.68032         7.73903        -0.17088
C         36.87026         5.58398        -0.55020
C         36.87557         8.46728        -0.46821
C         35.61008        10.58647        -0.35211
C         35.56663        12.01574        -0.48067
C         36.85205         9.90380        -0.47018
C         36.76350        12.76215        -0.57720
C         35.45182        14.84281        -0.77912
C         35.38711        16.26912        -0.91944
C         36.71246        14.19273        -0.67212
C         36.58551        17.02583        -0.93081
C         35.28598        19.09135        -1.10695
C         36.50633        18.45781        -1.00019
C         38.14336         2.01136        -0.70055
C         38.09325         3.46524        -1.10993
C         39.42779         1.35346        -0.66862
C         39.37718         4.21679        -0.82685
C         38.06032         6.33225        -1.10204
C         38.08996         7.78951        -0.72007
C         39.36871         5.61747        -0.85006
C         39.30827         8.50661        -0.80268
C         38.05860        10.63678        -0.64901
C         38.03443        12.07709        -0.63930
C         39.29424         9.94329        -0.77552
C         39.22943        12.80300        -0.74190
C         37.90964        14.96710        -0.72283
C         37.85541        16.35623        -0.86248
C         39.23548        14.29271        -0.47694
C         39.08489        17.13032        -1.04511
C         37.75554        19.29080        -0.85411
C         39.02826        18.53581        -1.14679
C         40.59162         2.06249        -0.66995
C         40.59582         3.51075        -0.69358
C         41.79595         4.24219        -0.57113
C         40.58148         6.34804        -0.78052
C         40.55990         7.80682        -0.87884
C         41.78851         5.62921        -0.61961
C         41.73625         8.55722        -1.00466
C         40.51377        10.67372        -0.92546
C         40.47665        12.12875        -0.93534
C         41.71431         9.95298        -1.04806
C         41.62144        12.89644        -1.20444
C         40.40539        15.01915        -1.09814
C         40.33041        16.46322        -1.23886
C         41.56237        14.30028        -1.34655
C         41.47183        17.23001        -1.56057
C         40.18151        19.26921        -1.45612
C         41.39624        18.61514        -1.67415
O         18.87178        11.51270         0.07183
O          3.57788        15.66500         1.19918
O         32.17642        14.10160        -2.05340
O          5.62987         6.05168        -2.34790
O         18.96398        14.76607         3.27696
O         23.56123        15.69452         3.04528
O         19.39911        12.27244         3.56032
O         28.73785        11.51213         2.66709
O         20.03793         5.20441        -0.77324
O          5.56400         4.00275         0.60357
O         16.74691        17.13275         3.00105
H         16.64679        16.19510         3.30110
O          5.43429        17.44807         1.57069
H          4.97329        16.70934         2.03605
O         15.84341        10.55821        -0.86416
H         16.65742        10.93303        -1.26408
O          7.62528        10.05586         1.32812
H          6.83411         9.63449         1.72363
O         12.22558        17.11482         1.22305
H         12.94968        17.59780         1.67556
O         12.91446        10.82338         2.44162
H         13.38711        11.57599         2.85862
O         20.65882         5.84397         2.75161
H         21.14815         6.45892         3.33854
O         27.73519        18.75764         2.24112
H         27.06671        18.51074         2.91614
O         14.20074        16.27300        -1.78966
H         13.39436        16.02526        -2.29799
O         30.27303        17.10474         1.33763
H         29.75515        17.69013         1.93623
O         27.09304         9.65034         3.35338
H         27.48958        10.47456         3.72282
O         15.13820         9.79358         2.61428
H         14.31337         9.56992         3.10112
O         29.63829        16.02206        -2.12632
H         29.65707        16.93645        -2.55717
O          2.74009        14.33901        -2.14508
H          2.65409        15.24970        -2.49627
O         37.67320        20.48317        -1.64424
H         37.56743        20.22184        -2.58172
O         16.47559        14.18240         3.16784
H         17.23242        13.93713         3.75775
O         37.93805         3.47114        -2.56700
H         37.84611         4.42004        -2.83565
O         37.87592         6.31322        -2.57651
H         38.61748         6.82335        -2.96816
O         10.13000         4.39790        -2.61000
H          9.34389         4.89087        -2.93076
O         33.66087         6.28620         2.33538
H         32.87668         6.71323         2.76612
O         31.23300         7.64765         2.78846
H         31.14350         8.56498         3.12713
O         19.36509         9.69115         3.22597
H         19.36399        10.63207         3.60187
O         29.80669        18.59239        -2.70077
O         12.82920        18.63211        -2.11647
H         12.24813        17.96923        -2.55644
O          2.26734        12.96450         1.20552
H          2.21738        12.04182         1.53132
O         11.50471        16.29190        -2.27645
H         10.74068        15.79928        -2.64764
O         39.45729        14.41280         0.98722
H         40.32539        13.99750         1.17933
O          7.41812        17.16571        -2.31758
H          8.12358        17.75282        -2.66483
O          8.63454        10.53963        -2.15027
H          9.43531        10.94250        -2.54592
H          0.38380         1.61768        -1.47201
H          0.33547         4.07832        -1.33941
H          2.51827         0.35786        -1.26559
H          0.31945         5.99998        -0.86273
H          0.34517         8.42917        -0.77583
H          0.42350        10.31956        -1.32336
H          0.37686        12.73237        -1.02721
H          0.34598        14.68701        -0.37819
H          0.42878        17.13395        -0.33845
H          1.78702        19.16141        -1.02745
H          4.96961         0.34747        -1.07700
H          3.95537        20.35184        -1.08347
H          7.48237         0.31776        -1.01107
H          6.38011        20.42640        -0.67379
H          9.94269         0.32752        -0.87262
H          8.85151        20.34232        -0.14819
H         12.38825         0.30336        -0.56471
H         11.26057        20.33020        -0.33401
H         14.84765         0.28112        -0.29466
H         13.79944        20.31485         0.00342
H         17.28970         0.25506        -0.01318
H         16.14427        20.29433         0.54018
H         19.75358         0.24141         0.18582
H         18.53721        20.24776         0.89819
H         22.23160         0.20240         0.40547
H         20.91537        20.20368         0.92918
H         24.70188         0.20346         0.42266
H         23.33782        20.18185         0.78152
H         27.15412         0.20969         0.36331
H         25.78992        20.21444         0.67263
H         29.60836         0.21257         0.25198
H         27.95105        20.03146        -0.48398
H         32.07209         0.22009         0.09597
H         30.33492        20.02350        -1.27148
H         34.53124         0.22411        -0.10474
H         32.76265        20.08503        -1.36408
H         37.02136         0.25170        -0.22102
H         35.25400        20.18954        -1.16324
H         39.44943         0.25710        -0.57344
H         37.81053        19.63517         0.21906
H         41.55818         1.54172        -0.60360
H         42.74713         3.70350        -0.45221
H         42.74208         6.16737        -0.53300
H         42.70791         8.05047        -1.07830
H         42.66979        10.48322        -1.15781
H         42.58347        12.40339        -1.39662
H         42.47219        14.81209        -1.69021
H         42.44186        16.73886        -1.71500
H         40.11353        20.36336        -1.53286
H         42.29691        19.19422        -1.92079
