         429
 CSIRO Nanostructure Databank - Neutral Graphene Oxide Data Set
C          1.27107         3.59209         1.65524
C          0.04176         4.23041         1.32072
C          1.18859         6.05664         0.11101
C         -0.01760         5.43471         0.67195
C          1.19776         7.51123        -0.27766
C         -0.04833         8.22033        -0.50625
C          1.08647        10.34188        -1.08160
C         -0.12087         9.54353        -0.82242
C          1.08043        11.86980        -1.16175
C         -0.16115        12.64653        -1.01497
C          1.08223        14.78728        -0.94283
C         -0.14084        14.00435        -0.96560
C          1.08272        16.21481        -1.13620
C         -0.10215        16.85812        -1.56986
C          1.16908        18.86030        -1.97208
C         -0.04273        18.15230        -2.04452
C          1.13867        21.13071        -1.75124
C         -0.03668        21.88170        -1.70174
C          1.10513        23.54411        -0.36871
C         -0.07353        23.05443        -0.94165
C          1.13157        24.85229         0.35443
C         -0.08211        25.68490         0.55831
C          1.23220        27.80312         1.04102
C         -0.03176        26.99004         0.87590
C          1.17298        29.20044         0.41144
C         -0.03279        29.89287         0.20683
C          1.16520        31.98704        -0.17651
C         -0.03755        31.26191        -0.04654
C          1.18396        33.45694        -0.15838
C         -0.01521        34.22016        -0.12205
C          1.22644        36.29899         0.15984
C          0.00533        35.59720         0.01533
C          1.27458        37.72550         0.29047
C          3.72416         3.65824         1.88041
C          2.49670         4.17232         1.34979
C          3.76426         6.17232         0.48323
C          2.50335         5.36241         0.46266
C          3.69312         7.61152         0.03929
C          2.38124         8.20845        -0.34722
C          3.51493        10.48807        -0.24440
C          2.39067         9.63556        -0.75926
C          3.52657        11.98247        -0.29110
C          2.34971        12.66737        -0.89941
C          3.53418        14.84903        -0.64652
C          2.30046        14.13359        -0.74070
C          3.53925        16.25949        -0.80031
C          2.30763        16.95290        -1.05143
C          3.51576        19.17766        -1.06716
C          2.32723        18.35792        -1.35293
C          3.47700        20.58452        -0.90926
C          2.31095        21.46839        -1.03720
C          3.58795        23.46837        -0.32544
C          2.31085        22.79341        -0.48618
C          3.57553        24.98537        -0.41345
C          2.43672        25.58384         0.37967
C          3.64485        27.71787         0.45806
C          2.46002        27.05479         0.56044
C          3.66658        29.21861         0.69356
C          2.38708        29.88794         0.21506
C          3.64823        31.95432        -0.45906
C          2.38204        31.25374        -0.14623
C          3.67871        33.45106        -0.28749
C          2.40564        34.14999        -0.03497
C          3.69491        36.23993         0.29807
C          2.44406        35.55943         0.14433
C          3.71422        37.66068         0.43757
C          2.47010        38.38198         0.40917
C          6.22787         3.64593         2.00519
C          4.97321         4.21867         1.58359
C          6.25268         5.80444         0.31811
C          5.01545         5.38030         0.72104
C          6.20015         7.90450        -0.23461
C          4.90411         8.45012        -0.22354
C          5.95861        10.60763         0.23703
C          4.81681         9.84317        -0.09483
C          6.02554        12.05875         0.04654
C          4.81476        12.72776        -0.24241
C          6.00736        14.83123        -0.61736
C          4.78163        14.12968        -0.48947
C          5.99874        16.26488        -0.79818
C          4.78347        16.98322        -0.85354
C          6.00331        19.10922        -0.84076
C          4.77272        18.44052        -0.90587
C          6.04094        20.53721        -0.49867
C          4.69839        21.27025        -0.42070
C          6.04008        23.44003        -0.63599
C          4.74463        22.75140        -0.44696
C          6.10686        24.92647        -0.40125
C          4.87954        25.65387        -0.04467
C          6.17831        27.71110         0.47040
C          4.89381        26.97673         0.30538
C          6.12859        29.17450         0.21528
C          4.93903        29.85011         0.19007
C          6.20110        31.98608        -0.21360
C          4.95219        31.17838        -0.52942
C          6.16988        33.39864         0.06089
C          4.95154        34.12094         0.04792
C          6.14176        36.17333         0.69398
C          4.92884        35.50724         0.34305
C          6.15912        37.62342         0.77477
C          4.93900        38.33085         0.59887
C          8.72865         3.73679         2.21895
C          7.46988         4.21903         1.71532
C          8.60097         6.30092         0.91680
C          7.49503         5.45130         0.93973
C          8.51132         7.79112         0.85449
C          7.26697         8.51483         0.44346
C          8.83555        10.89781         0.66344
C          7.01848         9.85886         0.79336
C          8.61267        12.12667        -0.06219
C          7.28383        12.76092        -0.14163
C          8.43658        14.76683        -1.19448
C          7.23388        14.10194        -0.56768
C          8.46976        16.24988        -0.94811
C          7.26601        16.95743        -0.84965
C          8.47019        19.10009        -0.85269
C          7.26807        18.40658        -0.86322
C          8.51306        20.56854        -1.15367
C          7.29173        21.30132        -0.66028
C          8.54441        23.42842        -0.60086
C          7.31722        22.69313        -0.60937
C          8.59821        24.85082        -0.43428
C          7.41022        25.54302        -0.19227
C          8.61960        27.68440        -0.41224
C          7.45962        26.96205         0.16161
C          8.34256        29.03145        -0.78887
C          7.31542        29.82900        -0.30881
C          8.68090        31.96966        -0.08242
C          7.40562        31.28856        -0.28979
C          8.64510        33.34622         0.43168
C          7.37953        34.06067         0.44366
C          8.50100        36.07236         1.46564
C          7.33252        35.42253         0.83774
C          8.55409        37.61315         1.41013
C          7.37777        38.30354         0.90468
C         11.18581         3.85488         2.32336
C          9.91844         4.39809         1.95428
C         11.14873         6.50985         1.25556
C          9.94284         5.62073         1.05440
C         11.12352         7.88046         0.93714
C          9.82555         8.61079         0.91223
C         11.07845        10.51097        -0.26959
C          9.84095        10.00173         0.41318
C         11.04309        12.01542        -0.48206
C          9.77689        12.71262        -0.59578
C         10.95227        14.79992        -1.15192
C          9.76610        14.10137        -0.95888
C         10.92826        16.23326        -1.23020
C          9.72502        16.91947        -1.01263
C         11.04999        19.11442        -0.83509
C          9.74294        18.36901        -0.74684
C         11.02640        20.59274        -0.88084
C          9.82177        21.24408        -0.78678
C         11.11609        23.43116        -0.42314
C          9.78471        22.66899        -0.44903
C         11.07669        24.89085        -0.59753
C          9.86884        25.58692        -0.48423
C         11.14229        27.75734        -1.02818
C          9.84019        27.03242        -0.60816
C         11.24012        29.22286        -0.60406
C         10.18304        30.08387        -0.87240
C         11.16865        32.00246         0.20046
C          9.92783        31.33902        -0.23212
C         11.04141        33.21987         1.03333
C          9.78819        33.96583         0.93037
C         11.08199        36.05629         1.54928
C          9.77698        35.26476         1.71306
C         11.06648        37.51001         1.53687
C          9.87195        38.23906         1.44608
C         13.64816         3.87372         2.25589
C         12.38509         4.51886         2.07543
C         13.57676         6.64356         1.52860
C         12.37629         5.90387         1.59688
C         13.56467         7.98783         1.09708
C         12.32293         8.60974         0.83359
C         13.55203        10.75894         0.22335
C         12.25193        10.10470         0.63366
C         13.49552        12.06310        -0.26488
C         12.24505        12.68302        -0.64371
C         13.51848        14.81664        -1.22224
C         12.23882        14.02102        -1.35798
C         13.50919        16.22323        -1.64864
C         12.16596        16.98509        -1.55895
C         13.46043        19.12966        -1.44767
C         12.25712        18.42362        -1.31211
C         13.50398        20.57224        -1.21732
C         12.30470        21.28776        -0.92811
C         13.56056        23.41113        -0.82465
C         12.33445        22.69185        -0.77275
C         13.56288        24.83186        -0.62555
C         12.34352        25.57863        -0.64635
C         13.57916        27.62677        -0.19209
C         12.37322        26.98385        -0.58566
C         13.57261        29.02385         0.17175
C         12.42763        29.77163        -0.01767
C         13.64623        31.82759         0.88211
C         12.44969        31.22642         0.24126
C         13.61238        33.23819         1.14767
C         12.34145        33.91293         1.42652
C         13.56272        36.09074         1.47677
C         12.29882        35.39003         1.51946
C         13.54612        37.53415         1.54447
C         12.30494        38.20444         1.55740
C         16.09095         3.86069         2.06772
C         14.84955         4.54828         2.09417
C         16.09788         6.68267         1.50970
C         14.85053         6.06023         2.08726
C         16.08517         8.05347         1.12845
C         14.80945         8.74794         0.96395
C         16.05749        10.86832         0.53987
C         14.77582        10.07799         0.55172
C         15.96397        12.10090        -0.32923
C         14.72217        12.94463        -0.11668
C         15.97646        14.88637        -1.17004
C         14.70999        14.20561        -0.94635
C         15.99165        16.28698        -1.40148
C         14.74243        17.01661        -1.53502
C         15.97513        19.16442        -1.89545
C         14.69682        18.40569        -1.61387
C         15.98072        20.60719        -1.43518
C         14.75768        21.28176        -1.22596
C         16.01870        23.41860        -0.89858
C         14.77871        22.70533        -0.99279
C         16.01817        24.78371        -0.56610
C         14.80158        25.51048        -0.45107
C         16.05361        27.62533         0.00876
C         14.79517        26.90372        -0.13814
C         16.06378        28.99708         0.33233
C         14.78434        29.59508         0.87027
C         16.09615        31.74519         1.38696
C         14.80993        31.09780         0.95301
C         16.03958        33.25091         1.28350
C         14.83367        33.95283         1.27031
C         16.02802        36.13414         1.41336
C         14.79228        35.40727         1.39576
C         16.00788        37.57316         1.52309
C         14.76636        38.24405         1.57571
C         18.52065         3.78592         1.69053
C         17.28404         4.51617         1.77329
C         18.51152         6.55860         1.07120
C         17.28629         5.93426         1.46259
C         18.53688         7.95509         0.79356
C         17.31085         8.69758         0.81323
C         18.49224        10.70835         0.01418
C         17.32483        10.07298         0.35062
C         18.52488        11.94801        -0.86920
C         17.20142        12.71085        -0.89452
C         18.43112        14.86757        -1.15836
C         17.20352        14.18242        -1.08667
C         18.44114        16.26555        -1.41415
C         17.23265        16.96527        -1.49388
C         18.44995        19.16550        -1.84086
C         17.21535        18.46353        -1.32975
C         18.44532        20.62567        -1.64833
C         17.24226        21.29952        -1.39376
C         18.47942        23.44466        -1.14358
C         17.27202        22.72822        -1.12034
C         18.50982        24.84269        -0.87471
C         17.31303        25.45519        -0.19955
C         18.47977        27.68393        -0.35773
C         17.27247        26.95599        -0.25675
C         18.48503        29.09097        -0.09129
C         17.27548        29.73797         0.32404
C         18.50662        31.83623         0.60999
C         17.30856        31.12248         0.70005
C         18.56905        33.26370         1.03682
C         17.29610        33.98663         1.37245
C         18.48863        36.17770         1.28459
C         17.26628        35.46194         1.32402
C         18.46522        37.60233         1.47983
C         17.23553        38.27164         1.59569
C         19.68473         4.39479         1.31928
C         20.91339         6.44573         0.65142
C         19.71954         5.80069         1.00501
C         20.93988         7.82759         0.41702
C         19.77811         8.59574         0.48953
C         21.01046        10.79034        -0.09514
C         19.80096        10.11257         0.48837
C         20.97775        12.09086        -0.46135
C         19.73464        12.82164        -0.63092
C         20.81967        15.04667        -0.49278
C         19.68436        14.18673        -0.81998
C         20.84502        16.35289        -0.82507
C         19.78778        16.89183        -1.75576
C         20.98708        19.21916        -1.75302
C         19.75080        18.41720        -1.92022
C         20.96322        20.56029        -1.75555
C         19.71020        21.37363        -2.00366
C         20.85424        23.62919        -1.89970
C         19.80569        22.72920        -1.29252
C         20.80752        24.96566        -1.72873
C         19.67012        25.61307        -1.08489
C         20.87771        27.78879        -0.85766
C         19.69163        27.01266        -0.76303
C         20.89229        29.13421        -0.55651
C         19.70985        29.82756        -0.15105
C         20.95273        31.97353         0.29105
C         19.71812        31.20890         0.20125
C         20.97953        33.31147         0.49095
C         19.69701        34.10453         0.46335
C         20.91093        36.24981         1.08440
C         19.73961        35.51398         1.03543
C         20.89557        37.63887         1.37974
C         19.70679        38.30903         1.54289
O          9.05008         8.34109         2.11440
O          5.33002        20.74561         0.78990
O         18.24692        33.46517         2.44029
O         11.55307        33.12763         2.39803
O          6.35645         6.64533        -0.79818
O          9.20012        29.60609        -1.74616
O         12.72717        16.52967        -2.85260
O          7.06285        27.27682         1.55056
O          3.67099         7.24862         1.49565
O         16.24007        11.95486        -1.74597
O          5.99734        24.35649        -1.80285
O          1.96123         9.80946        -2.13628
O         12.11480        32.08522        -0.93129
O          8.17388        36.84108         2.64498
O          1.90478         5.18570        -0.85041
O          1.95751        12.29924        -2.25777
O          7.87814        10.55910         1.63249
O          1.19172        20.07505        -2.66831
O         18.98972        18.75758        -3.14700
O          2.01562        24.81472         1.53887
O         10.54653        18.65080         0.48499
O          3.59616        32.82827        -1.64294
O          3.72049        29.45923         2.09957
O         10.47912        22.97266         0.81510
O          3.14920        11.28183         0.94935
O         20.12896        16.37222        -3.07510
H         19.57463        16.86660        -3.72049
O         11.21764         9.89763        -1.57167
H         11.85707        10.42462        -2.09598
O         19.61696        21.60795        -3.43699
H         19.45456        20.72840        -3.85187
O         11.95296        10.67285         1.94652
H         12.63515        10.36148         2.57702
O          8.19799        14.60768        -2.65116
H          9.00670        14.91419        -3.11499
O          9.72554        34.86370         3.11046
H          9.32318        35.61522         3.60410
O         14.86557         6.45067         3.51408
H         14.11295         5.99188         3.94576
O         17.50206        25.14787         1.24771
H         18.16957        25.77724         1.59558
O         19.33556        34.27744        -0.94740
H         20.05404        34.78213        -1.38309
O         10.17472         5.07084        -0.30494
H          9.46673         4.41433        -0.48164
O         14.68600        13.45670         1.24509
H         15.06140        12.76381         1.84241
O         18.72439        11.39389        -2.20571
H         17.82859        11.16179        -2.54556
O         16.20086        11.37514         1.92672
H         16.19005        10.59676         2.52472
O         19.86109        10.47005         1.92450
H         19.12042        10.00784         2.37234
O         16.12422        19.17584        -3.34429
H         15.29842        19.53212        -3.73321
O         20.24625        22.41636         0.06669
H         20.18611        23.23878         0.59712
O         11.16654        27.72180        -2.49046
H         10.44123        28.31522        -2.79358
O         17.23340        18.68365         0.10795
H         16.45129        18.23990         0.49887
O          1.42420        28.05476         2.45946
H          2.28168        28.57381         2.54638
O         16.29356        31.43890         2.82296
H         17.05581        32.00024         3.11325
O         14.69467        29.14635         2.26966
H         15.28806        29.73402         2.79659
O         12.22153        13.67476        -2.79460
H         12.34192        14.52425        -3.28234
O          8.44756        20.66446        -2.63718
H          8.28605        21.60461        -2.86920
O          3.32817        25.30150        -1.81655
H          4.14169        25.03358        -2.30676
O          5.08822        30.76635        -1.93288
H          4.73712        31.51441        -2.47136
H          1.24270         2.67978         2.26869
H         -0.89049         3.77585         1.68634
H         -0.98428         5.95054         0.58794
H         -0.99022         7.67164        -0.36619
H         -1.10657        10.02878        -0.87633
H         -1.12035        12.11498        -0.93275
H         -1.10187        14.53103        -0.88262
H         -1.04694        16.30432        -1.63311
H         -0.91716        18.63031        -2.50400
H         -0.91365        21.55464        -2.27460
H         -1.00613        23.63067        -0.87776
H         -1.06511        25.19312         0.48434
H         -0.98259        27.50736         1.07669
H         -0.99612        29.37676         0.32210
H         -1.00487        31.77936        -0.10228
H         -0.98655        33.71745        -0.22210
H         -0.93910        36.16049         0.01875
H          0.33013        38.28891         0.28810
H          3.67459         2.75696         2.51048
H          2.49606        39.47699         0.50658
H          6.19731         2.74127         2.63182
H          4.94811        39.42919         0.66203
H          8.74295         2.82209         2.83164
H          7.42739        39.38619         0.71743
H         11.21498         2.85488         2.78390
H          9.92803        39.32867         1.30537
H         13.66052         2.78786         2.43925
H         12.29207        39.30407         1.58302
H         16.09560         2.76858         2.20751
H         14.74903        39.34221         1.63660
H         18.50776         2.71187         1.92728
H         17.22564        39.36243         1.73834
H         20.61996         3.81929         1.25963
H         21.84530         5.86563         0.58989
H         21.90265         8.30267         0.18406
H         21.98059        10.27664        -0.03249
H         21.91756        12.59932        -0.72536
H         21.63531        14.61846         0.10826
H         21.68970        16.98535        -0.51688
H         21.94103        18.68968        -1.61210
H         21.90588        21.11339        -1.62851
H         21.71051        23.16914        -2.41398
H         21.61774        25.59165        -2.12913
H         21.81843        27.30860        -1.15937
H         21.84191        29.67982        -0.63755
H         21.90728        31.43101         0.23133
H         21.94775        33.82678         0.56985
H         21.88015        35.77391         0.87891
H         21.84921        38.18255         1.43039
H         19.69568        39.39429         1.71830
