         651
 CSIRO Nanostructure Databank - Neutral Graphene Oxide Data Set
C          6.40895        31.57485         2.39883
C          6.49000        32.91955         2.61115
C          8.46388        27.39411         0.85558
C          8.36451        28.77352         0.77329
C          7.35266        29.49357         1.48075
C          8.55579        31.62368         1.14067
C          7.42821        30.86492         1.66815
C          8.60505        33.04313         1.33828
C          7.59508        33.70219         2.10597
C          8.78737        35.86847         1.97543
C          7.70612        35.06027         2.43313
C          8.89247        37.19485         2.32576
C         10.83471        23.14679         0.47648
C         10.77448        24.48269         0.17048
C          9.64102        25.28247         0.56006
C         10.56543        27.29767        -0.60268
C          9.56202        26.63966         0.33222
C         10.59380        28.82932        -0.50057
C          9.41772        29.56099         0.09324
C         10.59848        31.78223        -0.34473
C          9.55233        30.98794         0.40835
C         10.80304        33.15346         0.24097
C          9.75739        33.77223         0.88759
C         11.01929        35.93917         0.73457
C          9.68269        35.27768         0.90671
C         11.12722        37.35595         1.08830
C         10.02545        38.03354         1.90111
C         10.96209        40.28126         1.38105
C          9.91166        39.48734         1.84627
C         10.96816        41.68310         1.48672
C         13.36781        18.78935         0.27275
C         13.31539        20.22268         0.16765
C         12.13386        20.91803         0.42888
C         13.34895        23.08921        -0.03233
C         12.09781        22.37760         0.42688
C         13.20729        24.44009        -0.65057
C         11.89719        25.15544        -0.55020
C         13.08615        27.31286        -0.86469
C         11.93414        26.64271        -0.58902
C         13.17666        28.78260        -0.68161
C         11.90690        29.55558        -0.42373
C         13.06336        31.70563        -0.83057
C         11.91289        31.03952        -0.54395
C         13.05740        33.22488        -0.96992
C         12.16311        33.79939         0.14011
C         13.25634        36.01605        -0.28619
C         12.09677        35.31024         0.11348
C         13.16192        37.50264        -0.53101
C         12.01379        38.19939         0.23061
C         13.28507        40.40626         0.33565
C         12.03462        39.65719         0.54944
C         13.30749        41.75209         0.62678
C         12.11439        42.45890         1.12735
C         13.46421        44.56533         1.46221
C         12.16068        43.82123         1.38358
C         13.42769        46.06419         1.28709
C         15.88037        14.52777         0.70266
C         15.85141        15.88088         0.41692
C         14.50287        16.56600         0.34110
C         15.76591        18.70618        -0.20525
C         14.55809        18.06576         0.14217
C         15.67862        20.11169        -0.76042
C         14.50837        20.91763        -0.25867
C         15.69002        23.02521        -0.87282
C         14.53514        22.30083        -0.43098
C         15.64788        24.47196        -1.01196
C         14.43816        25.18824        -0.90321
C         15.58056        27.39047        -1.27377
C         14.30538        26.59788        -1.42706
C         15.59095        28.80173        -1.30529
C         14.37139        29.51335        -1.12307
C         15.52609        31.76449        -1.56558
C         14.27494        30.97538        -1.27578
C         15.60277        33.22426        -1.25275
C         14.43132        33.90200        -0.92977
C         15.60642        36.09842        -0.99004
C         14.44334        35.34160        -0.71308
C         15.63314        37.52482        -0.79647
C         14.49279        38.20202        -0.39444
C         15.67451        40.41321        -0.43557
C         14.57165        39.59326         0.18848
C         15.76904        41.79228         0.12826
C         14.51524        42.54041         0.42795
C         15.73181        44.69728         0.30359
C         14.54815        43.88793         0.66090
C         15.83294        46.08430         0.79211
C         14.60204        46.78632         1.15401
C         15.87172        48.91662         1.38892
C         14.65909        48.21843         1.32869
C         15.96011        50.31809         1.59945
C         18.38662        10.23256         0.81084
C         18.41214        11.68826         1.34179
C         17.13603        12.43949         1.10304
C         18.33669        14.51120         0.52297
C         17.11121        13.79058         0.77091
C         18.29983        15.89711         0.27837
C         17.06690        16.59840         0.18517
C         18.20761        18.68061        -0.51577
C         17.02508        18.01042        -0.18038
C         18.23170        20.14555        -0.71451
C         16.96205        20.90493        -0.64739
C         18.11302        23.01378        -1.33930
C         16.93582        22.34398        -1.03571
C         18.07395        24.46384        -1.57803
C         16.83969        25.18259        -1.26989
C         18.13645        27.42033        -1.27469
C         16.82873        26.64817        -1.14703
C         18.07285        28.86906        -1.55293
C         16.84691        29.52565        -1.51446
C         18.10026        31.76300        -1.67350
C         16.80688        30.99454        -1.74721
C         18.09533        33.22138        -1.35733
C         16.87616        33.91182        -1.29601
C         18.14374        36.14865        -1.16923
C         16.84701        35.41798        -1.51788
C         18.17606        37.52794        -1.14637
C         16.85907        38.26077        -1.33895
C         18.20734        40.45135        -0.88771
C         16.89273        39.75525        -1.00615
C         18.24888        41.79853        -0.56223
C         17.04514        42.50462        -0.05699
C         18.28540        44.67187         0.11655
C         17.00677        43.99175        -0.09677
C         18.29002        45.98694         0.55097
C         17.06464        46.70958         0.82879
C         18.41346        48.87104         1.13825
C         17.12572        48.12315         1.29049
C         18.39822        50.36441         1.05696
C         17.17629        51.07137         1.54390
C         18.53159        53.18473         1.75711
C         17.24927        52.44284         1.75182
C         18.60413        54.66720         1.72386
C         21.00291         5.94852         1.53496
C         21.04460         7.40511         1.12761
C         19.71290         8.12545         1.13491
C         20.91276        10.25014         1.19073
C         19.67324         9.48819         1.13064
C         20.88275        11.66766         0.77046
C         19.62215        12.42854         0.82499
C         20.83120        14.52263         0.33149
C         19.59339        13.78641         0.54388
C         20.84216        15.87168         0.03222
C         19.57505        16.62845         0.12380
C         20.67844        18.62051        -1.10911
C         19.52819        18.06242        -0.29226
C         20.73771        20.14467        -1.07654
C         19.43738        20.80529        -1.30970
C         20.68716        23.03371        -1.55257
C         19.39474        22.29530        -1.57140
C         20.67968        24.48701        -1.61655
C         19.38665        25.22543        -1.70876
C         20.57005        27.41532        -1.58688
C         19.39689        26.69461        -1.52235
C         20.56170        28.84572        -1.70101
C         19.34142        29.56210        -1.71622
C         20.54461        31.69927        -1.46827
C         19.35941        30.99331        -1.62181
C         20.52479        33.07281        -1.06192
C         19.35660        33.87022        -1.11017
C         20.66255        36.18012        -1.10107
C         19.41886        35.36993        -1.42744
C         20.68257        37.59273        -1.62837
C         19.40373        38.30335        -1.21020
C         20.69772        40.40455        -0.95360
C         19.42859        39.69653        -1.07488
C         20.70745        41.77256        -0.54644
C         19.48766        42.50834        -0.39387
C         20.72550        44.47162         0.37460
C         19.49428        43.88786        -0.02145
C         20.88466        45.91999         0.70839
C         19.58975        46.66992         0.78353
C         20.85507        48.83856         0.28276
C         19.56198        48.13739         0.52127
C         20.95828        50.21293         0.80445
C         19.73384        51.05101         0.97020
C         20.95262        53.31690         0.95474
C         19.81244        52.48234         1.45055
C         20.71742        54.67182         0.32438
C         19.63877        55.39761         1.18113
C         20.34490        57.77806         0.69108
C         19.64922        56.82528         1.42574
C         20.61492        59.11350         1.09682
C         23.47000         3.19855         1.65575
C         22.25302         3.83048         1.79006
C         23.45637         6.00426         1.91679
C         22.16787         5.27021         1.77381
C         23.44088         7.50910         1.95850
C         22.07474         8.20012         1.95073
C         23.38667        10.29905         1.32932
C         22.12814         9.63061         1.44912
C         23.41139        11.80313         1.43482
C         22.17988        12.42912         0.80649
C         23.37917        14.70661         0.75754
C         22.08454        13.91206         0.80086
C         23.31580        15.97929         0.01280
C         22.08643        16.55982        -0.25378
C         23.27660        18.74221        -0.86501
C         22.02379        17.92176        -0.87337
C         23.17771        20.23248        -0.77239
C         21.88681        20.89050        -1.10270
C         23.17137        23.01609        -1.55070
C         21.87394        22.32703        -1.34895
C         23.13219        24.52365        -1.78889
C         21.84655        25.21966        -1.65071
C         23.04630        27.41697        -2.03642
C         21.88462        26.70880        -1.35897
C         23.15115        28.88231        -1.85477
C         21.83692        29.56033        -1.93709
C         23.12438        31.72134        -1.42497
C         21.84206        31.08016        -1.78887
C         23.05466        33.08063        -0.93741
C         21.79889        33.55808        -0.60478
C         23.15059        36.18242        -0.83814
C         21.80344        35.70956        -0.52862
C         23.15817        37.59102        -1.16459
C         21.96975        38.30483        -1.25193
C         23.17957        40.43023        -0.83253
C         21.94592        39.73643        -1.07397
C         23.20199        41.72989        -0.31087
C         21.93243        42.36199        -0.10050
C         23.68148        44.69426         0.57699
C         21.79666        43.61203         0.55304
C         23.46830        46.04795         0.20322
C         22.15552        46.68012         0.37220
C         23.32188        48.81857        -0.04922
C         22.11382        48.05134         0.22860
C         23.38360        50.12743         0.36609
C         22.22661        50.63231         1.08852
C         23.41190        53.33303         0.49835
C         22.20655        52.83134         1.11169
C         23.34630        54.71364         0.17722
C         22.07349        55.39054         0.14454
C         23.31626        57.44631        -0.45113
C         22.09847        56.69875        -0.30249
C         23.30711        58.85355        -0.55086
C         21.58419        59.92474         0.46917
C         23.34740        61.68378         0.46750
C         22.13728        61.11501         0.95657
C         24.68640         3.91685         1.49451
C         25.89640         6.08338         1.44504
C         24.71517         5.30939         1.56723
C         25.87534         7.48498         1.37962
C         24.64390         8.20593         1.46878
C         25.79060        10.24147         0.51266
C         24.58771         9.58721         1.18865
C         25.81200        11.75758         0.67556
C         24.68396        12.46268         0.92697
C         25.88738        14.60819         0.37795
C         24.70790        13.98431         1.05840
C         25.85256        16.00350         0.05275
C         24.59178        16.58719        -0.53883
C         25.73343        18.80962        -0.54978
C         24.57301        18.10700        -0.49746
C         25.73573        20.25787        -0.89073
C         24.45441        21.00660        -0.76517
C         25.64591        23.17860        -1.02882
C         24.45740        22.43349        -1.12845
C         25.56792        24.70312        -0.93114
C         24.37222        25.28399        -1.64409
C         25.61577        27.40841        -2.23430
C         24.34004        26.64246        -2.14229
C         25.68458        28.91885        -1.90805
C         24.34192        29.58391        -1.69495
C         25.47539        31.61821        -0.62122
C         24.30921        31.00366        -1.37979
C         25.47143        33.16576        -0.62163
C         24.28080        33.87285        -0.72782
C         25.62272        35.98882        -1.24634
C         24.28154        35.35393        -0.83085
C         25.67436        37.50582        -1.08387
C         24.44364        38.25894        -1.56310
C         25.74921        40.40003        -0.98139
C         24.44040        39.75210        -1.24886
C         25.79147        41.67674        -0.20603
C         24.51509        42.40281         0.04745
C         25.83322        44.57491        -0.43959
C         24.67800        43.89292         0.06517
C         25.77989        46.00103        -0.62106
C         24.55522        46.70323        -0.40678
C         25.68503        48.91439        -0.98384
C         24.36494        48.13315        -0.89083
C         25.68508        50.40403        -0.70369
C         24.46475        51.06505        -0.08321
C         25.76062        53.22160        -0.12388
C         24.54846        52.53953         0.22465
C         25.78508        54.64286        -0.16758
C         24.56614        55.37860        -0.13021
C         25.79477        57.51876        -0.41882
C         24.56487        56.78172        -0.33843
C         25.72987        58.93940        -0.42873
C         24.49249        59.62210        -0.41059
C         24.39799        61.04690        -0.17014
C         27.10258         8.23782         1.18661
C         28.39288        10.23407         0.48343
C         27.09767         9.56173         0.87365
C         28.37095        11.75085         0.51329
C         27.06354        12.40826         0.10292
C         28.31485        14.60613         0.33437
C         27.09102        13.90426         0.31051
C         28.26824        16.06701         0.42869
C         27.01451        16.72707         0.03745
C         28.24365        18.91277        -0.15739
C         27.05889        18.08198        -0.61558
C         28.23625        20.39184        -0.36995
C         26.99384        21.07375        -0.85635
C         28.13578        23.30043        -0.57017
C         26.88876        22.55128        -0.77188
C         28.14130        24.82342        -0.76665
C         26.85640        25.33886        -1.41456
C         28.58044        27.65931        -1.75868
C         26.77547        26.49931        -2.11452
C         28.22992        28.96518        -1.34774
C         26.94181        29.64330        -1.42503
C         27.98918        31.68775        -0.37919
C         26.81921        30.95958        -0.94767
C         27.94478        33.14491         0.02889
C         26.64208        33.93614        -0.01264
C         28.01623        35.97304        -0.50315
C         26.82057        35.32421        -0.59602
C         28.17244        37.36669        -1.07772
C         26.87883        38.14534        -0.96192
C         28.19379        40.24944        -0.88749
C         26.98681        39.58870        -0.95914
C         28.19193        41.74682        -1.04584
C         27.12948        42.41950        -0.16697
C         28.25895        44.57424        -0.78028
C         27.04845        43.87922        -0.57931
C         28.22663        46.00916        -0.85524
C         27.01096        46.69616        -0.87082
C         28.26312        48.95828        -0.94021
C         26.98311        48.17645        -1.04957
C         28.21233        50.39851        -0.62141
C         26.99388        51.09819        -0.55336
C         28.23604        53.21492        -0.32963
C         26.99022        52.50021        -0.33652
C         28.23333        54.63200        -0.31662
C         27.02547        55.36674        -0.31462
C         27.00761        56.78477        -0.39535
C         29.52176        12.47564         0.57814
C         30.77429        14.63821         0.33813
C         29.56442        13.92705         0.42541
C         30.83267        16.05166         0.15983
C         29.58832        16.82831         0.30793
C         30.73968        18.92183        -0.30969
C         29.56110        18.23359        -0.12547
C         30.73779        20.36417        -0.55567
C         29.52070        21.06736        -0.60298
C         30.70261        23.26189        -0.98540
C         29.47255        22.53137        -0.59256
C         30.70001        24.73093        -0.89787
C         29.50838        25.42865        -1.14220
C         30.66457        27.48406        -0.37823
C         29.57923        26.86622        -1.17573
C         30.67853        28.97612        -0.51556
C         29.45252        29.68547        -0.91229
C         30.51401        31.77091         0.07557
C         29.35793        31.13540        -0.57973
C         30.46436        33.17751         0.25161
C         29.22965        33.89580         0.07025
C         30.47799        36.00891        -0.08106
C         29.24062        35.28428        -0.10442
C         30.55405        37.41544        -0.20382
C         29.38625        38.13512        -0.58075
C         30.61447        40.26992        -0.28617
C         29.41655        39.53083        -0.63178
C         30.66890        41.70469        -0.42379
C         29.50916        42.44058        -0.75291
C         30.80847        44.58460        -0.87159
C         29.50275        43.84450        -0.76183
C         30.75434        45.99656        -0.32107
C         29.48244        46.74289        -0.52613
C         30.75015        48.96054        -0.27143
C         29.55687        48.21737        -0.73720
C         30.68825        50.32168        -0.23089
C         29.45473        51.07911        -0.41424
C         29.45025        52.47425        -0.31923
C         32.00704        16.78039        -0.05308
C         33.19618        18.94056        -0.19668
C         32.00861        18.20811        -0.19481
C         33.20884        20.36877        -0.33009
C         31.98170        21.05630        -0.58759
C         33.24932        23.25327        -0.63509
C         32.02490        22.48708        -0.91510
C         33.24456        24.66837        -0.64985
C         31.98450        25.41836        -0.80788
C         33.21401        27.57549        -0.58506
C         31.97474        26.78833        -0.65213
C         33.12580        29.01801        -0.16523
C         31.78998        29.66983        -0.11378
C         32.92675        31.74979         0.58315
C         31.73573        31.08182         0.15940
C         32.91331        33.16395         0.61563
C         31.70137        33.85481         0.35415
C         33.03811        36.05059         0.34603
C         31.72306        35.27071         0.03288
C         32.91883        37.46642         0.60468
C         31.75140        38.13839         0.20448
C         32.87722        40.32304         0.74692
C         31.71894        39.57071         0.21886
C         33.02984        41.73287         0.36065
C         31.90617        42.41984        -0.14998
C         33.17947        44.52564        -0.04732
C         31.98489        43.81959        -0.33309
C         33.18890        45.99105        -0.10566
C         32.04706        46.72260        -0.20808
C         32.03154        48.21744         0.09256
C         34.40494        21.10458        -0.21782
C         35.60847        23.24798         0.04645
C         34.43403        22.53254        -0.27892
C         35.63033        24.65999         0.04755
C         34.44540        25.35961        -0.34391
C         35.66777        27.56684         0.22538
C         34.49915        26.83031        -0.41066
C         35.43221        28.91720         0.78752
C         34.25678        29.63353         0.56420
C         35.24415        31.74439         1.40265
C         34.12969        31.02711         0.90458
C         35.27854        33.16102         1.36332
C         34.12754        33.88508         0.91506
C         35.36040        35.99977         1.20137
C         34.16291        35.28616         0.89602
C         35.34628        37.40328         1.30222
C         34.00239        38.08092         1.47473
C         35.37016        40.29873         1.33901
C         34.05585        39.60199         1.34414
C         35.39325        41.68309         1.08784
C         34.24814        42.41645         0.63508
C         34.30614        43.81697         0.40155
C         36.77680        25.37229         0.54016
C         37.88656        27.43740         1.33567
C         36.79782        26.75994         0.75190
C         37.82270        28.82229         1.69441
C         36.48036        29.46550         1.64318
C         37.65370        31.68806         2.14402
C         36.40794        31.01170         1.91914
C         37.62771        33.17724         2.33960
C         36.48687        33.88002         1.65057
C         37.87597        35.96863         1.33855
C         36.55868        35.24720         1.45441
C         37.77289        37.42202         1.72382
C         36.57316        38.12261         1.56636
C         36.54175        39.55968         1.58000
C         38.90192        29.52753         2.18732
C         40.07822        31.70648         2.69600
C         38.78858        30.92164         2.76288
C         40.13871        33.03256         2.45045
C         38.96479        33.85545         2.16369
C         39.04831        35.17546         1.86345
O         22.41039        51.71853         1.93978
O         29.70132        30.75314        -1.94331
O         12.25982        24.48032        -1.81400
O         33.36633        28.64570        -1.57949
O         13.07671        23.01561         1.39435
O         29.89903        46.29322         0.82839
O         27.84203        32.07676         1.05424
O         20.29960        46.29546         2.01054
O         25.18660        41.62939         1.12601
O         25.73547        28.39541        -3.27971
O         19.91230        48.55006        -0.82217
O         23.22337        23.57320        -2.92173
O         22.55250        14.65068         1.97130
O         21.80104        30.44933        -3.10498
O         19.46423        52.65791         2.85061
O         24.68185        51.02254        -1.55598
O         31.33759        22.78180        -2.20190
O         14.60458        31.45752        -2.66664
O         17.75566        20.76052         0.57089
O         11.33239        39.12452        -0.67408
O         16.13073        44.54823        -1.11917
O         11.32348        37.58452         2.52338
O         36.05283        29.97350         2.93611
O         28.03257        19.80254         0.97912
O         12.71742        29.12370         0.71683
O         26.46182        20.54184        -2.13047
O         28.93542        16.63647         1.61216
O         28.86734        22.99521         0.68392
O         17.61338        27.07041         0.06694
O         27.88629        26.99818        -2.76983
O         18.63669        24.85246        -2.91425
O         33.06641        40.20474         2.23841
O         21.72832        34.60037         0.31639
O         23.43325        26.85512        -3.29944
O         22.80628        18.12144        -2.12337
O         15.87699        40.42658        -1.87229
O         18.86933        50.90539        -0.21352
O         19.77297        17.74768         1.10762
O         22.09446        59.48881        -0.78250
O         19.27160        21.30852        -2.67033
O         18.03944        48.34482         2.43771
O         26.29425        48.61766        -2.28470
O         23.74103        20.71001         0.50330
O         23.62360         6.73682         3.19538
O         22.78076        44.06178         1.42761
O         16.69258        41.92406         1.28102
O         20.88868        57.35695        -0.54944
O         32.69374        35.62977        -1.00713
O         25.63379        10.01550        -0.88393
O         21.72146        11.89023        -0.45196
O         25.12475        40.52980        -2.31206
O         29.14555        48.63002        -2.07809
O          9.59722        29.38225        -1.40736
O         35.56489        27.40182        -1.22928
O         17.45285        31.45307        -2.97708
O         26.96535        12.21236        -1.33678
H         26.45614        11.34800        -1.46826
O         38.45053        30.78299         4.20512
H         37.59130        30.29425         4.22573
O         16.77620        35.51137        -2.99609
H         16.62341        36.47447        -3.20460
O         23.80972        48.03301        -2.22376
H         24.56570        48.10119        -2.85324
O         14.03296        26.47649        -2.86693
H         13.27798        25.84468        -2.95402
O         13.71729        16.23860         1.49650
H         14.16284        16.61232         2.28424
O         27.82510        42.03849        -2.41985
H         28.29570        41.41382        -3.00963
O         20.27463        18.30058        -2.46653
H         21.03166        18.51278        -3.05810
O         10.04733        32.02445        -1.68511
H          9.78791        31.14189        -2.04498
O         18.56743        11.54377         2.79305
H         18.59693        12.44185         3.18546
O         20.14865        54.50625        -0.99356
H         20.01485        55.40436        -1.36756
O         25.79072        35.75126        -2.68511
H         25.19877        36.40022        -3.14692
O         24.48689        38.12342        -3.02346
H         24.88692        38.96155        -3.36341
O         10.08904        26.96726        -1.93926
H          9.45976        27.67889        -2.20343
O         23.30179        12.10827         2.85827
H         24.10206        11.76291         3.30726
O         38.13506        36.02901        -0.12700
H         37.36736        36.47859        -0.54175
O         18.20866        10.23832        -0.61041
H         19.01158        10.62091        -1.02270
O         19.46204        35.27676        -2.91250
H         18.51944        35.16692        -3.22403
O         33.15754        48.86429        -0.50584
H         33.05664        48.81936        -1.47879
O         28.36706        37.19271        -2.51860
H         27.60694        36.64660        -2.84097
O         12.84403        37.60649        -1.95735
H         12.21116        38.36061        -2.05282
O         26.27104        34.18176         1.38035
H         26.47821        33.36301         1.88378
O         37.30387        33.28414         3.77806
H         37.85016        32.60711         4.25355
O         24.69571        16.24101        -1.95937
H         23.96512        16.72518        -2.42223
O         27.29780        17.79311        -2.02453
H         26.53407        17.25553        -2.34611
O         15.01484        39.36767         1.57381
H         15.42614        40.19600         1.90878
O         28.02454        25.36933         0.62056
H         28.44485        24.68529         1.20361
O         20.68438        37.62635        -3.08609
H         20.20412        36.81089        -3.38661
O         31.04322        44.79272        -2.31121
H         31.08957        43.91160        -2.73880
O         12.86272        33.45047         1.37741
H         12.38252        33.85640         2.13000
O         29.45786         9.68569         1.25298
H         30.30851         9.95818         0.85567
O         15.48701        19.95416        -2.21053
H         14.62283        19.51352        -2.35345
O         27.61980        42.38983         1.18633
H         26.83110        42.33055         1.77629
O         25.22274        31.23155         0.77822
H         26.04810        31.44370         1.27952
O         16.66677        38.19489        -2.79380
H         16.01223        38.89833        -3.02173
O          8.96933        35.60123        -0.34498
H          9.38604        35.08600        -1.07066
O         21.59811         8.28464         3.30719
H         22.12766         7.64288         3.83861
O         33.61274        37.77379         2.85204
H         33.08633        38.54824         3.16552
O         25.00025        14.24077         2.46677
H         24.13124        14.20811         2.93721
O         12.47426        33.55552        -2.24384
H         13.00756        33.10571        -2.93631
O         21.52658         7.41610        -0.25040
H         20.82129         7.05696        -0.82804
O         25.35325        25.01825         0.48075
H         26.24749        25.18470         0.87654
O         13.90350        44.38715         2.87395
H         13.94341        43.42258         3.05145
O         22.16201        26.84790         0.07009
H         21.40158        26.49059         0.57575
O         30.36073        27.23436         1.05671
H         29.58044        26.62954         1.08936
H          5.55603        31.00218         2.79156
H          5.70590        33.43635         3.18364
H          7.70785        26.85025         1.44353
H          6.52139        28.92834         1.92814
H          6.95281        35.51332         3.09569
H          8.12691        37.64731         2.97552
H          9.96226        22.66349         0.94400
H          8.84062        24.78904         1.13393
H          8.99704        39.96132         2.23256
H         10.12791        42.18755         1.98674
H         12.45413        18.24982         0.56189
H         11.20419        20.36046         0.61724
H         11.27214        44.30439         1.81937
H         12.49247        46.59108         1.53063
H         14.93534        13.99994         0.89746
H         13.94773        16.13369        -0.53897
H         13.71354        48.76565         1.46260
H         15.02650        50.86821         1.79687
H         17.51096         9.69734         1.25271
H         16.18938        11.92459         1.32713
H         16.33173        53.00226         1.99300
H         17.79943        55.21437         2.24301
H         20.06079         5.38719         1.42227
H         18.78994         7.54537         0.97479
H         19.07710        57.17683         2.29895
H         20.18798        59.45903         2.04917
H         23.50326         2.10040         1.61928
H         21.32307         3.24405         1.81140
H         23.53057        62.73032         0.76129
H         21.63364        61.62743         1.78932
H         25.61761         3.36150         1.31224
H         26.85772         5.56164         1.32326
H         26.66369        59.51881        -0.38428
H         25.31852        61.63144        -0.32285
H         28.05846         7.70063         1.28128
H         28.55984         9.96367        -0.60788
H         29.19327        55.16887        -0.34657
H         27.96403        57.32532        -0.45581
H         30.48230        11.96506         0.75778
H         31.72012        14.07504         0.35077
H         31.59276        50.89008         0.03488
H         30.40385        53.01513        -0.22750
H         32.97380        16.25401        -0.06864
H         34.15544        18.41709        -0.06784
H         34.14794        46.50568         0.05976
H         32.16858        48.32190         1.20627
H         35.34304        20.56900        -0.00994
H         36.50767        22.69307         0.35168
H         36.35277        42.21632         1.16871
H         35.23523        44.36037         0.62846
H         37.64528        24.77848         0.86373
H         38.79620        26.87177         1.58848
H         38.70323        37.98669         1.89093
H         37.49720        40.09954         1.66607
H         39.88022        29.02653         2.24869
H         41.00879        31.15203         2.89211
H         41.12042        33.53189         2.42184
H         40.03882        35.65529         1.80273
