         621
 CSIRO Nanostructure Databank - Neutral Graphene Oxide Data Set
C          5.80135        31.87936        -1.87184
C          5.73563        33.21798        -2.04427
C          8.28888        27.81795        -0.89927
C          8.28207        29.07117        -1.50968
C          7.05890        29.80087        -1.60001
C          8.24785        31.76731        -2.43296
C          7.03581        31.12269        -2.02992
C          8.17971        33.14664        -2.89645
C          6.87049        33.95790        -2.62057
C          8.22602        36.07614        -2.48403
C          7.00551        35.37795        -2.37436
C          8.24364        37.48225        -2.29813
C         10.77781        23.75867         0.63503
C         10.73324        25.07029         0.13045
C          9.54398        25.74376        -0.16016
C         10.66860        27.51851        -1.51973
C          9.59009        27.20927        -0.49057
C         10.70667        28.88921        -2.16336
C          9.49543        29.71061        -1.97518
C         10.75811        31.65161        -2.79346
C          9.49413        31.04755        -2.38894
C         10.73768        33.12465        -3.03036
C          9.45788        33.91765        -3.03371
C         10.68458        36.04008        -2.52328
C          9.47287        35.36716        -2.68972
C         10.68588        37.47309        -2.30297
C          9.45062        38.20759        -2.24970
C         10.66214        40.35547        -1.86673
C          9.48224        39.62459        -2.09872
C         10.58696        41.81520        -1.86287
C         13.27694        19.59360         1.95297
C         13.21706        20.97217         1.52168
C         12.04241        21.67697         1.40474
C         13.34246        23.83501         0.77836
C         12.01557        23.12132         1.08214
C         13.33736        25.16633         0.07961
C         12.00397        25.79443        -0.18335
C         13.19925        27.35090        -1.86201
C         11.93912        26.76118        -1.32689
C         13.15787        28.69545        -2.50302
C         12.00806        29.49673        -2.57855
C         13.19101        31.74055        -3.13379
C         11.96944        30.94304        -2.89585
C         13.17398        33.16495        -2.92603
C         11.98531        33.87102        -2.79647
C         13.14562        35.98080        -2.43087
C         11.94955        35.30249        -2.60032
C         13.12260        37.38773        -2.00996
C         11.88017        38.18957        -2.10154
C         13.18077        40.24268        -1.69906
C         11.90153        39.58773        -1.81451
C         13.35842        41.50969        -1.15592
C         11.50909        42.66865        -1.24315
C         13.13767        44.55944        -0.93853
C         11.83556        44.04867        -1.31114
C         13.29407        45.89283        -0.55390
C         15.79601        15.46537         3.10780
C         15.73151        16.85254         2.81456
C         14.52983        17.55411         2.63055
C         15.74727        19.66213         2.04814
C         14.46934        18.91045         2.18086
C         15.77974        20.85932         1.17616
C         14.46597        21.58850         0.99979
C         15.75533        23.54936         0.23353
C         14.54978        23.00428         0.65185
C         15.74918        24.76345        -0.63023
C         14.52978        25.59974        -0.71141
C         15.74263        27.33571        -2.03689
C         14.50930        26.76994        -1.42786
C         15.69068        28.73421        -2.54474
C         14.45267        29.08672        -3.02780
C         15.73717        31.72016        -3.25634
C         14.42715        31.18594        -3.50605
C         15.74884        33.19385        -3.32528
C         14.41860        33.92048        -3.20135
C         15.78410        36.06022        -2.65117
C         14.42456        35.38041        -2.88007
C         15.72625        37.37854        -1.99588
C         14.42854        38.08254        -1.90091
C         15.72481        40.25628        -1.82489
C         14.42302        39.55117        -2.07496
C         15.74442        41.68563        -1.50479
C         14.51477        42.32967        -1.31887
C         15.75291        44.54731        -1.18164
C         14.40517        43.80732        -1.24813
C         15.76497        45.82226        -0.45673
C         14.55532        46.48635        -0.17365
C         15.74321        48.32401         1.03364
C         14.57378        47.74635         0.51797
C         15.77976        49.56775         1.70157
C         18.28780        11.28507         3.74655
C         18.30858        12.68652         3.72438
C         17.08567        13.38954         3.52622
C         18.28132        15.53495         3.43836
C         17.01227        14.76969         3.29753
C         18.32873        16.85232         2.74586
C         17.01621        17.51992         2.47373
C         18.30915        19.58426         1.73719
C         17.06189        18.99249         2.28310
C         18.28940        20.85966         1.18408
C         17.05221        21.57989         0.97415
C         18.27472        23.66361         0.35357
C         17.00163        22.85431         0.40963
C         18.30295        24.87084        -0.54406
C         17.06704        25.31340        -1.17987
C         18.37039        27.35685        -2.18344
C         17.04896        26.62317        -1.92571
C         18.20096        28.86578        -2.29784
C         16.98468        29.41595        -3.05026
C         18.15209        31.72283        -2.99655
C         16.92220        30.97725        -3.04283
C         18.19719        33.11831        -3.15168
C         17.01344        33.91696        -3.13089
C         18.33912        35.93254        -2.79763
C         17.05458        35.28259        -2.80697
C         18.66150        37.04419        -2.00828
C         16.76148        38.03388        -1.37501
C         18.00781        40.13962        -0.99089
C         16.84791        39.46404        -1.32385
C         18.20021        41.54313        -1.21073
C         17.01772        42.30561        -1.35316
C         18.37866        44.36156        -0.89242
C         17.05394        43.77157        -1.31381
C         18.34974        45.76632        -0.36806
C         17.03229        46.29617         0.13370
C         18.28641        48.32247         1.18751
C         17.01527        47.56968         0.92647
C         18.23088        49.42727         2.16303
C         16.95934        50.10526         2.30244
C         18.10769        51.86573         3.60129
C         16.93624        51.33055         2.98422
C         18.05809        53.07250         4.28297
C         20.55077         6.98790         3.38938
C         20.62129         8.35745         3.55882
C         19.43257         9.15300         3.65236
C         20.78384        11.22148         4.17064
C         19.47867        10.52914         3.81559
C         20.81144        12.70086         3.80503
C         19.59910        13.36563         3.76113
C         20.88117        15.59422         3.64501
C         19.57607        14.83691         3.75199
C         20.83335        17.01835         3.11966
C         19.57696        17.63940         2.62482
C         20.80611        19.43320         1.42921
C         19.54421        18.85176         1.95723
C         20.82247        20.83066         0.94711
C         19.50181        21.33687         0.40652
C         20.76425        23.64622         0.09217
C         19.51109        22.83195         0.09412
C         20.73967        25.12535        -0.05833
C         19.47984        25.67030        -0.58201
C         20.54756        27.89849        -0.86975
C         19.45602        26.93270        -1.21124
C         20.75750        28.94402        -1.99417
C         19.42138        29.67004        -2.16396
C         20.75264        31.80362        -2.80224
C         19.44108        31.11323        -2.57321
C         20.77919        33.12906        -3.26082
C         19.47640        33.78276        -3.47809
C         20.76588        36.05447        -3.59918
C         19.46860        35.30148        -3.49815
C         20.79132        37.50941        -3.19820
C         19.73899        37.93001        -2.24739
C         20.86258        40.12057        -1.80076
C         19.89927        39.12841        -1.52811
C         20.80474        41.43947        -1.27744
C         19.52719        42.15207        -1.02943
C         20.82444        44.04209        -0.06090
C         19.55502        43.49690        -0.67854
C         20.83091        45.52762         0.25250
C         19.61352        46.35878         0.15420
C         20.78280        48.03015         1.71415
C         19.59992        47.66603         0.90557
C         20.68477        49.19001         2.58367
C         19.40738        49.89878         2.74290
C         20.50243        51.58093         4.17379
C         19.35559        51.10253         3.53836
C         20.52538        52.92664         4.69655
C         19.21449        53.56667         5.10430
C         20.40812        55.80309         5.12540
C         19.25134        55.06785         5.20433
C         20.42893        57.23224         5.22388
C         22.86143         4.04996         2.65933
C         21.70425         4.72677         2.96689
C         23.09428         6.83199         3.20646
C         21.74735         6.13186         3.36674
C         23.06398         8.30668         3.00536
C         21.89946         9.07740         3.51790
C         23.29833        11.12656         3.70851
C         21.98056        10.43148         3.69299
C         23.34086        12.63565         3.74073
C         22.08381        13.41594         3.71434
C         23.40934        15.48209         3.23107
C         22.16135        14.81290         3.58820
C         23.44349        16.97065         3.02580
C         22.14199        17.69356         2.80691
C         23.34203        19.60767         1.62420
C         22.10725        18.84332         1.85338
C         23.29574        20.87730         1.06662
C         22.00049        21.50998         0.79721
C         23.27807        23.71574         0.34865
C         22.00518        22.97957         0.55694
C         23.25230        25.16588        -0.01139
C         21.95335        25.86054        -0.08393
C         22.87198        28.18402        -0.27692
C         21.84812        27.25183        -0.45137
C         23.05400        29.39176        -1.00621
C         21.93781        29.88668        -1.74196
C         23.18025        31.98735        -2.22941
C         21.93901        31.16894        -2.30215
C         23.27938        33.17034        -3.15017
C         22.00421        33.91902        -3.36361
C         23.30315        36.09052        -3.61402
C         22.03013        35.29325        -3.56771
C         23.33717        37.52455        -3.20617
C         22.08150        38.27002        -3.12476
C         23.35365        40.19347        -2.01963
C         22.08073        39.65676        -2.51504
C         23.29165        41.48260        -1.36201
C         22.05789        42.14214        -1.18346
C         23.31311        44.11475        -0.22337
C         22.05121        43.62663        -0.88601
C         23.30962        45.52688         0.32905
C         21.97385        46.08836         0.75135
C         23.17426        47.70447         2.27252
C         21.96336        47.31520         1.54872
C         23.01604        48.68467         3.44306
C         21.79753        49.58276         3.30754
C         23.08084        51.49496         4.46325
C         21.73720        50.77799         4.14983
C         23.02832        52.95507         4.79040
C         21.70909        53.62157         4.81157
C         22.94716        55.88024         4.67566
C         21.66659        55.09859         4.76406
C         22.90786        57.30153         5.10490
C         21.60323        57.99903         5.14615
C         22.78623        60.14725         4.94100
C         21.60964        59.40794         5.18989
C         24.12446         4.68916         2.55147
C         25.47672         6.76103         2.46527
C         24.26159         6.07543         2.70255
C         25.59442         8.16785         2.56326
C         24.36449         8.97953         2.75101
C         25.71703        11.09445         2.73379
C         24.52022        10.38587         3.23431
C         25.73579        12.49292         2.62531
C         24.62712        13.32494         3.18912
C         25.53339        15.35399         1.87835
C         24.52831        14.74675         2.84800
C         25.86259        16.79887         2.16641
C         24.73944        17.69366         2.60660
C         25.84391        19.54561         1.38476
C         24.56594        18.75242         1.48923
C         25.76808        20.88600         0.87444
C         24.52119        21.53561         0.70518
C         25.75191        23.58256        -0.13792
C         24.45200        22.83948        -0.04975
C         25.73862        24.96233        -0.41889
C         24.51686        25.73891        -0.20917
C         25.79712        27.83514        -0.67401
C         24.74794        27.15107        -0.10192
C         25.74285        29.31429        -0.82290
C         24.38081        30.07351        -0.97338
C         25.76109        32.01945        -2.01065
C         24.44168        31.42969        -1.63293
C         25.81229        33.28619        -2.56846
C         24.60289        33.87631        -3.21096
C         25.84244        36.10648        -3.14596
C         24.62002        35.34623        -3.49604
C         25.79491        37.48235        -2.99275
C         24.52809        38.17942        -2.87386
C         25.73554        39.95484        -1.44398
C         24.53056        39.50118        -2.25339
C         25.76045        41.45237        -1.16992
C         24.54761        42.11546        -0.99948
C         25.75718        44.03488         0.01983
C         24.50442        43.44230        -0.39987
C         25.69769        45.33284         0.71917
C         24.38343        45.68100         1.39476
C         25.59978        47.44050         2.79889
C         24.35425        47.02978         2.09305
C         25.63529        48.79266         3.45392
C         24.32374        49.44837         3.77198
C         25.51007        51.67426         3.82899
C         24.31966        50.91623         3.95930
C         25.50507        53.07918         4.07187
C         24.31225        53.75379         4.60915
C         25.41354        55.98633         4.30143
C         24.25367        55.21677         4.58447
C         25.34410        57.40398         4.28298
C         24.21190        58.12995         4.83532
C         24.00920        59.56199         4.67523
C         26.78090         8.86332         2.34085
C         27.98525        10.95065         1.83739
C         26.82672        10.30127         2.29400
C         28.01173        12.35092         1.66305
C         26.83328        13.10320         1.96891
C         28.12121        15.18927         1.28214
C         26.78031        14.51367         1.58285
C         28.23740        16.61506         1.62154
C         27.04745        17.43127         1.88158
C         28.26045        19.64991         1.38010
C         27.05657        18.90609         1.65540
C         28.22002        20.89372         0.67895
C         26.98018        21.54247         0.47582
C         28.19142        23.52821        -0.38712
C         26.96783        22.87792        -0.04604
C         28.17098        24.88218        -0.82605
C         26.94340        25.61916        -0.79524
C         28.13899        27.69498        -1.37522
C         26.96481        27.05374        -1.03920
C         28.25477        29.18280        -1.13492
C         26.97246        29.95758        -1.35523
C         28.25395        31.94399        -2.06186
C         26.98866        31.27791        -1.78302
C         28.29799        33.28540        -2.47412
C         27.06870        33.99688        -2.73147
C         28.32631        36.10048        -3.33686
C         27.07303        35.36077        -3.05735
C         28.32300        37.61409        -3.25811
C         27.01824        38.37393        -3.04782
C         28.34052        40.17938        -1.77162
C         27.07951        39.38506        -1.91680
C         28.24776        41.56355        -1.27396
C         27.02109        42.12764        -0.91615
C         28.20607        44.02132         0.24762
C         26.97707        43.43919        -0.26939
C         28.20151        45.14135         1.04230
C         26.96494        45.88607         1.27290
C         28.17167        47.63606         2.56929
C         26.91611        46.85168         2.40950
C         28.07735        49.03404         2.87546
C         26.84466        49.63854         3.24917
C         27.94062        51.84235         3.27521
C         26.75757        51.03118         3.44721
C         27.86526        53.24535         3.42609
C         26.66224        53.88474         3.81290
C         26.61253        55.29520         3.94938
C         29.24351        13.00043         1.31561
C         30.63604        15.05049         1.21016
C         29.37469        14.38728         1.29806
C         30.72794        16.44215         1.44291
C         29.50246        17.04485         1.92455
C         30.71168        19.53418         1.02887
C         29.54405        19.16340         1.70212
C         30.67502        20.79855         0.36156
C         29.44368        21.50519         0.25455
C         30.64375        23.44688        -0.69597
C         29.42898        22.82286        -0.29743
C         30.62373        24.79924        -1.16952
C         29.39690        25.49429        -1.23265
C         30.66416        27.60562        -1.89267
C         29.34501        26.89971        -1.67561
C         30.73159        29.08164        -1.77232
C         29.49346        29.83110        -1.69945
C         30.75328        31.96541        -1.77246
C         29.47794        31.19519        -1.91422
C         30.75265        33.28134        -2.48256
C         29.58157        33.94651        -2.71477
C         30.91275        36.13092        -3.18178
C         29.62045        35.34233        -3.25392
C         30.93604        37.63826        -3.10475
C         29.60999        38.39367        -3.06387
C         30.81467        40.32559        -2.07015
C         29.62034        39.69727        -2.36472
C         30.82642        41.81064        -1.76422
C         29.49020        42.37130        -1.24685
C         30.76940        43.99683         0.29948
C         29.49797        43.54255        -0.29172
C         30.73251        44.99699         1.39960
C         29.41551        45.63884         1.72488
C         30.59809        47.82744         2.16373
C         29.37893        47.04116         2.22655
C         30.49413        49.22566         2.39828
C         29.26765        49.83567         2.74754
C         29.17012        51.23041         2.94841
C         31.86722        17.26039         1.19859
C         33.07517        19.29803         0.52373
C         31.89572        18.68272         0.99035
C         33.11316        20.65239         0.06826
C         31.88639        21.39664        -0.07617
C         33.11705        23.36301        -0.89517
C         31.88087        22.72730        -0.57625
C         33.13880        24.71525        -1.36166
C         31.88497        25.45833        -1.49496
C         33.14763        27.50253        -2.17170
C         31.90429        26.81759        -1.77217
C         33.21865        28.97663        -2.01287
C         31.96656        29.71568        -1.84624
C         33.22831        31.80067        -1.95363
C         32.02199        31.16149        -1.92344
C         33.33294        33.21983        -2.34341
C         32.07030        33.93526        -2.68389
C         33.35757        36.11048        -2.29540
C         32.06707        35.41957        -2.54866
C         33.41058        37.56889        -2.59652
C         32.13078        38.31070        -2.55122
C         33.33645        40.33505        -1.79068
C         32.10172        39.65629        -2.21255
C         33.26104        41.65827        -1.19019
C         32.03972        42.29363        -0.98073
C         33.21974        44.12771         0.27944
C         31.97486        43.47710        -0.14739
C         33.20750        45.28643         1.03565
C         32.00947        45.73387         1.82131
C         31.82249        47.23101         1.83824
C         34.31977        21.29306        -0.26199
C         35.57641        23.31524        -0.89497
C         34.34595        22.64365        -0.70109
C         35.61719        24.66239        -1.29609
C         34.38140        25.33567        -1.59428
C         35.74617        27.43310        -2.13018
C         34.44063        26.69728        -2.14763
C         35.73037        28.94805        -2.04680
C         34.42626        29.62646        -1.92303
C         35.74443        31.79928        -1.69435
C         34.44472        31.06670        -1.48175
C         35.77978        33.19713        -1.77358
C         34.58305        33.96328        -2.03893
C         35.84826        36.07657        -1.90965
C         34.61842        35.34362        -2.12393
C         35.86997        37.48197        -1.87836
C         34.68622        38.28376        -2.26952
C         35.79405        40.30929        -1.36483
C         34.57021        39.68328        -1.82710
C         35.73432        41.64053        -0.90660
C         34.49607        42.29482        -0.74569
C         34.45416        43.55248        -0.12836
C         36.86534        25.35988        -1.35942
C         38.15310        27.46095        -1.54757
C         36.95861        26.72844        -1.65785
C         38.19086        28.89319        -1.51932
C         36.95389        29.64752        -1.58424
C         38.15402        31.76967        -1.09098
C         36.93965        31.03820        -1.46937
C         38.21527        33.21186        -1.31501
C         37.03115        33.91640        -1.62160
C         38.27923        36.04017        -1.42050
C         37.05162        35.33865        -1.66500
C         38.26319        37.45177        -1.34142
C         37.06954        38.18044        -1.53244
C         37.00734        39.59172        -1.33325
C         39.42155        29.56492        -1.43065
C         40.72695        31.76973        -1.23636
C         39.50433        30.96466        -1.06722
C         40.69885        33.12529        -1.19384
C         39.46395        33.89776        -1.20442
C         39.48027        35.29303        -1.24876
O         22.15200        55.59945         3.44832
O         23.84242        27.86655         0.67530
O         19.05791        39.40105        -0.43483
O          7.23803        33.45797        -3.95329
O         15.02537        20.70682        -0.05576
O         18.74879        15.44675         4.81330
O         27.92918        39.07270        -0.78164
O         23.86333        53.24927         5.95814
O         30.42875        38.35377        -4.26506
O         19.30483        30.76171        -1.11024
O         32.37736        35.87595        -1.19374
O         23.79422        57.60512         6.17031
O         12.81566        26.25250         0.93395
O         35.95579        28.24052        -3.32094
O         34.29027        37.99352        -3.67566
O         14.98128        33.64093        -4.51403
O         26.36639        46.43958         0.04070
O         29.36565        43.73931        -1.77339
O         33.70682        26.90913        -3.39061
O         15.00357        44.46478        -2.42729
O         19.08922        48.73803         0.03118
O         17.94925        44.34403        -2.30823
O         14.40556        29.94486        -4.13070
O         16.99919        46.27111         1.62779
O         12.46323        26.27553        -2.59032
O         22.39726        50.65429         5.44687
O         21.50450        18.44773         0.54780
O         12.78627        23.89570         2.11540
O         15.05492        36.16975        -3.93510
O         16.30436        24.30993        -1.92242
O         19.15841        46.60789        -1.23605
O         26.22728        46.36199         3.60742
O         29.64550        18.19886         2.70299
O         23.41472         8.76153         1.64470
O         12.36288        42.00692        -0.32701
O         17.69659        16.77979         1.40687
O         32.89737        33.41820        -3.76798
O         20.52822        37.13387        -4.57818
O         29.97627        44.57418         2.59971
O         24.13011        33.02369        -4.32164
O         16.43996        19.80436         3.33566
O         22.65082         6.41683         4.51868
O         20.19856        23.05538        -1.16433
O         29.84959        27.15341        -3.04309
O         27.22279        14.78266         0.20252
O         24.37756        13.12021         4.62118
O         38.76003        31.31428         0.14870
O         24.23844        10.52016         4.66682
O         17.84983        37.29587        -0.89982
O         10.29775        27.64307        -2.89460
O         16.27644        26.49467        -3.15405
O         20.82238        16.72093         4.55829
O         22.00920        39.48791        -3.96268
O         28.24922        36.93359        -4.54173
O         10.12054        33.57493        -4.30352
O         19.25575        34.55431        -4.71558
O         13.75517        37.62798        -0.66295
O         30.48471        35.52573        -4.42151
O         22.71477        23.59518         1.69784
O         24.11307        35.76016        -4.79571
O         23.58998        32.37715        -0.87140
O         15.22474        39.98637        -3.20521
O         22.86279        17.84477         4.05896
O         25.11285        48.77224         4.82702
O         25.11899        30.05187         0.28206
O         28.50006        29.27000         0.33257
H         27.63441        29.16025         0.78541
O         24.14726        44.69928         2.42837
H         24.74326        44.91518         3.18288
O         21.11656        28.28021        -3.21711
H         20.34869        27.72591        -3.52686
O         25.48421        39.35362        -0.13226
H         26.36564        39.25016         0.29973
O         24.12383        22.47149        -1.44207
H         24.84557        21.90121        -1.78314
O         10.04808        27.92405         0.72251
H          9.58219        27.53973         1.49510
O         32.32122        45.36764         3.20454
H         31.48290        45.01620         3.59326
O         34.31679        31.00225        -0.00498
H         34.27912        31.92317         0.33196
O         24.39688        18.08151         0.20237
H         23.43656        18.02742        -0.00824
O         21.95523        44.33896        -2.15524
H         22.55856        43.91297        -2.80021
O         20.85949        11.21788         5.63317
H         20.98530        10.29122         5.92810
O         18.97131        53.08370         6.47984
H         19.03024        52.10437         6.46482
O         20.08414        28.58583         0.34077
H         19.76353        29.48912         0.10440
O         31.03102        42.38727        -3.09167
H         30.63499        43.29069        -3.07212
O         20.98525        43.36122         1.21642
H         20.33082        43.71234         1.85511
O         24.76693        15.40481         0.63179
H         25.42286        15.54221        -0.09231
O         19.35731        20.65155        -0.87003
H         19.84840        21.18250        -1.53975
O         26.84303        39.19849        -4.23101
H         26.99976        38.61932        -5.01130
O         18.47197        24.15441         1.72930
H         17.67613        24.65881         2.00080
O         22.72037        47.82770         4.57592
H         23.53446        47.80187         5.13560
O         17.15357        29.04009        -4.45316
H         16.30525        29.24507        -4.90925
O         18.83052        26.87829        -3.50169
H         18.07883        27.05245        -4.12112
O         23.68317        46.38956        -0.78146
H         23.04603        46.21807        -1.51152
O         30.75793        32.32749        -0.32843
H         30.54821        31.51305         0.17968
O         25.25292        18.39459         3.76334
H         24.48648        18.60372         4.34791
H          4.93007        31.33477        -1.47855
H          4.82648        33.77601        -1.77606
H          7.34428        27.38945        -0.53166
H          6.13116        29.32689        -1.24737
H          6.13985        35.90796        -1.94793
H          7.28672        38.01277        -2.18554
H          9.83970        23.19043         0.72230
H          8.57441        25.25185         0.00836
H          8.52408        40.16527        -2.13229
H          9.74589        42.25913        -2.41820
H         12.32390        19.07585         2.14175
H         11.08537        21.18895         1.64495
H         11.07646        44.78276        -1.62417
H         12.38812        46.49705        -0.39225
H         14.85468        14.89907         3.18138
H         13.58078        17.02330         2.80266
H         13.61807        48.27415         0.65633
H         14.84525        50.14067         1.79963
H         17.33100        10.75825         3.61001
H         16.15900        12.79619         3.49223
H         15.99541        51.89547         3.05710
H         17.10176        53.61198         4.35545
H         19.56312         6.50627         3.32478
H         18.45733         8.65796         3.52716
H         18.29614        55.58015         5.39808
H         19.47570        57.75027         5.40962
H         22.80227         2.98038         2.41136
H         20.72827         4.22746         2.88093
H         22.69994        61.24055         4.86149
H         20.65467        59.94104         5.29489
H         24.99602         4.09492         2.24181
H         26.37035         6.17317         2.20515
H         26.17305        57.97540         3.84044
H         24.83504        60.16830         4.27664
H         27.70192         8.30658         2.11178
H         28.87494        10.35732         1.58113
H         28.76671        53.85222         3.25799
H         27.52055        55.87865         3.74073
H         30.14271        12.37317         1.22064
H         31.53422        14.46373         0.96647
H         31.39556        49.84992         2.31057
H         30.06856        51.85579         2.84082
H         32.80052        16.73138         0.94267
H         34.00869        18.71503         0.49544
H         34.16659        45.76867         1.27982
H         32.72223        47.86311         1.79377
H         35.27211        20.75643        -0.13778
H         36.51770        22.78163        -0.69791
H         36.65399        42.14050        -0.56859
H         35.39428        44.04112         0.16698
H         37.77693        24.81594        -1.06931
H         39.08571        26.91743        -1.33282
H         39.19183        37.99000        -1.10089
H         37.92230        40.12048        -1.02665
H         40.34907        29.02056        -1.66359
H         41.68262        31.24116        -1.37139
H         41.64204        33.68775        -1.26509
H         40.43457        35.83093        -1.14720
