         651
 CSIRO Nanostructure Databank - Neutral Graphene Oxide Data Set
C          6.14483        32.11279         0.17435
C          6.05518        33.37680         0.66882
C          8.74367        28.25418        -1.51339
C          8.28390        29.12755        -0.56361
C          7.30724        30.17474        -0.57947
C          8.48293        31.83104         1.01514
C          7.33994        31.29261         0.25943
C          8.23653        33.06258         1.88524
C          7.16365        33.99259         1.34264
C          8.27107        36.07908         2.05536
C          7.14722        35.34989         1.55330
C          8.30873        37.45603         2.00036
C         11.42214        24.17640        -2.07697
C         11.37550        25.50725        -1.61803
C         10.13555        26.24643        -1.71241
C         11.27807        28.31414        -0.93300
C         10.00376        27.53496        -1.28628
C         11.15274        29.50155         0.00735
C          9.99969        29.92016         0.58391
C         10.95254        31.97980         1.51138
C          9.75203        31.27469         1.05066
C         10.85282        33.23131         2.20418
C          9.50145        33.82067         2.34313
C         10.80089        36.05568         2.47780
C          9.45872        35.32897         2.52128
C         10.71378        37.54916         2.87240
C          9.49453        38.21193         2.25432
C         10.73425        40.29709         1.88797
C          9.51470        39.55277         1.94382
C         10.73731        41.66632         1.79958
C         13.73973        19.90201        -2.54081
C         13.77464        21.29610        -2.35889
C         12.60939        22.05468        -2.39843
C         13.80057        24.02389        -1.47648
C         12.60621        23.42946        -2.02567
C         13.73479        25.32602        -0.90436
C         12.52226        26.08556        -1.02260
C         13.54231        27.98312         0.13344
C         12.47133        27.44701        -0.53745
C         13.43207        29.29238         0.88122
C         12.40946        30.28493         0.27407
C         13.35179        31.86146         2.11738
C         12.20079        31.41803         1.25682
C         13.28030        33.31603         2.50755
C         12.03997        33.93226         2.61279
C         13.15658        36.21936         3.55213
C         11.86497        35.28490         3.30790
C         13.21811        37.52645         2.73971
C         12.01750        38.20443         2.47539
C         13.24556        40.34198         1.94681
C         12.01272        39.51611         1.72319
C         13.23058        41.72568         1.94053
C         11.95364        42.42516         1.74817
C         13.11898        44.55705         1.40047
C         11.92314        43.76970         1.43761
C         13.15797        45.77921         0.78896
C         16.00257        15.55650        -2.79439
C         16.01008        16.91084        -2.39695
C         14.86766        17.71948        -2.60246
C         16.11586        19.72154        -1.87952
C         14.88543        19.09916        -2.35461
C         16.20376        21.09067        -1.75419
C         15.10616        22.00529        -2.24548
C         16.16540        23.89515        -0.88809
C         15.02965        23.31476        -1.47049
C         16.08708        25.15326        -0.20608
C         14.87328        25.86229        -0.23959
C         15.96871        27.81501         0.95376
C         14.67835        27.09688         0.60413
C         15.97976        29.15062         1.35142
C         14.77600        29.97929         1.11032
C         15.90043        31.91793         2.35665
C         14.71578        31.36671         1.66331
C         15.81678        33.23492         2.85900
C         14.51218        33.90697         3.05094
C         15.77814        36.12929         3.44516
C         14.47499        35.36833         3.50680
C         15.70419        37.60051         3.07649
C         14.44250        38.21875         2.63830
C         15.66081        40.44543         2.53730
C         14.54164        39.58012         1.96487
C         15.67392        41.90794         2.28304
C         14.43831        42.52023         2.04084
C         15.59564        44.80365         2.00255
C         14.28455        44.02404         2.19760
C         15.61559        46.00426         1.14720
C         14.38817        46.51619         0.61980
C         15.58714        48.35963        -0.46036
C         14.37948        47.69157        -0.12972
C         15.57235        49.49287        -1.29928
C         18.52980        11.58546        -3.98330
C         18.38218        12.66522        -3.13486
C         17.22159        13.48630        -3.21206
C         18.08931        15.16567        -1.49645
C         17.09309        14.69722        -2.54322
C         18.45523        16.62966        -1.76760
C         17.21478        17.50703        -1.85365
C         18.46780        19.50093        -1.08287
C         17.25700        18.86721        -1.58631
C         18.59943        20.86235        -0.99170
C         17.48287        21.73443        -1.40554
C         18.65946        23.77860        -0.27479
C         17.47408        23.19800        -1.00352
C         18.47192        24.96434         0.61333
C         17.23077        25.70377         0.53656
C         18.22292        27.53237         1.93263
C         17.13440        26.99170         1.09614
C         18.28033        28.98671         2.22938
C         17.12994        29.78001         1.98736
C         18.11772        31.70132         3.41336
C         17.08107        31.14309         2.43824
C         18.23301        33.22152         3.23738
C         17.04687        33.93406         3.16899
C         18.24817        36.07766         3.01267
C         17.05261        35.39241         3.21790
C         18.23481        37.51979         2.66278
C         16.96777        38.28086         2.64078
C         18.20914        40.54006         2.67431
C         16.96451        39.76918         2.82336
C         18.15376        41.92180         2.52224
C         16.90628        42.61660         2.40831
C         18.17299        44.75055         1.77021
C         16.92690        44.09227         2.23960
C         18.10928        46.03359         1.15922
C         16.84285        46.62689         0.80275
C         18.05047        48.42150        -0.41461
C         16.82906        47.81236         0.00326
C         18.00853        49.48959        -1.33783
C         16.77238        50.05638        -1.78503
C         17.90971        51.81600        -3.14970
C         16.74377        51.18719        -2.65938
C         17.89188        53.03390        -3.83468
C         21.15664         7.81398        -5.82730
C         21.07552         9.00512        -5.03559
C         19.84190         9.70941        -4.85243
C         20.82944        11.20396        -3.13958
C         19.73519        10.81454        -4.00622
C         20.76258        12.29388        -2.26258
C         19.44259        12.98144        -2.14016
C         20.56540        14.81264        -0.68864
C         19.32236        14.26427        -1.36506
C         20.68956        16.28854        -0.50462
C         19.46698        17.12781        -0.74585
C         20.79405        19.21670        -0.13841
C         19.52310        18.60716        -0.54734
C         20.90355        20.57382         0.00135
C         19.95036        21.50337        -0.72363
C         20.93172        23.33990         0.83441
C         19.89354        22.92567        -0.13935
C         20.83138        24.68456         1.40180
C         19.57273        25.42206         1.34005
C         20.69635        27.35926         2.62478
C         19.45127        26.66526         2.14109
C         20.68318        28.83465         2.74378
C         19.49659        29.56841         2.71461
C         20.73734        31.74741         3.14878
C         19.48046        30.90818         3.48336
C         20.63658        33.18889         2.73606
C         19.53673        33.95290         3.44617
C         20.71898        36.08428         2.75488
C         19.51378        35.40595         2.99906
C         20.77405        37.54090         2.66280
C         19.50019        38.28410         2.85862
C         20.75802        40.50851         2.56007
C         19.47580        39.79002         2.86075
C         20.58738        41.90152         2.05730
C         19.45215        42.72827         2.60570
C         20.61406        44.67507         1.46895
C         19.40158        44.05844         1.87494
C         20.60091        46.17795         1.48215
C         19.33199        46.71535         0.81798
C         20.56495        48.57793        -0.29268
C         19.30483        47.88136         0.06744
C         20.55531        49.59040        -1.39508
C         19.23940        49.91939        -2.02349
C         20.49005        51.74318        -3.36930
C         19.19191        51.08988        -2.96485
C         20.47451        53.21143        -3.66260
C         19.10269        53.84979        -4.00798
C         20.36985        55.67102        -5.16180
C         19.16761        55.01086        -4.87751
C         20.38073        56.83342        -5.97721
C         23.60453         5.03096        -6.41531
C         22.39922         5.73944        -6.41318
C         23.60992         7.69991        -5.53241
C         22.33887         7.07223        -5.92965
C         23.52036         8.95660        -4.64396
C         22.19604         9.43896        -4.30250
C         23.30897        10.93734        -2.51248
C         22.03830        10.38297        -3.19504
C         23.20318        12.22742        -1.82002
C         21.92884        12.77338        -1.56098
C         23.12821        14.58180        -0.10073
C         21.83322        13.97892        -0.67599
C         23.10961        16.09849         0.02244
C         21.87735        16.85907        -0.11692
C         23.05578        18.88319         0.85399
C         22.03789        18.36729        -0.13687
C         23.13387        20.34329         1.03872
C         22.07202        21.15234         0.63754
C         23.09671        22.94003         2.03927
C         22.02554        22.53185         1.05922
C         23.17479        24.43461         2.21676
C         21.93860        25.21304         2.04801
C         23.29180        27.31853         2.40372
C         21.99577        26.59965         2.56337
C         23.29623        28.77395         2.71378
C         21.98765        29.49961         2.98396
C         23.14614        31.66470         2.18294
C         22.00070        31.00397         2.88482
C         23.13700        33.15335         1.99716
C         21.86725        33.91408         2.28337
C         23.19070        36.01365         2.51776
C         21.96364        35.36840         2.54930
C         23.26139        37.48117         2.88844
C         21.96747        38.20959         2.56349
C         23.29730        40.25001         1.89044
C         22.02388        39.69280         2.44124
C         23.32599        41.31390         1.06141
C         21.46093        42.47890         1.18636
C         23.08849        44.43060         0.92669
C         21.76438        43.90429         1.15036
C         23.21829        45.94108         1.13677
C         21.91931        46.75247         0.96852
C         23.10188        48.43818        -0.58069
C         21.87288        47.95000         0.08309
C         23.06661        49.51037        -1.43610
C         21.81589        49.76231        -2.25411
C         23.06817        51.90256        -3.19198
C         21.80611        51.08181        -3.05344
C         23.01215        53.23755        -3.85739
C         21.69648        53.85005        -4.17459
C         22.89476        55.78549        -5.10048
C         21.65027        55.10590        -4.74326
C         22.84749        56.93222        -5.93288
C         21.58283        57.45993        -6.37487
C         22.77472        59.22862        -7.57569
C         21.57767        58.61412        -7.19639
C         24.79754         5.57395        -5.92471
C         25.99006         7.48929        -4.88466
C         24.84618         6.90376        -5.43541
C         25.95904         8.73195        -4.16660
C         24.70218         9.36396        -3.87431
C         25.80251        11.07218        -2.52135
C         24.62003        10.44642        -2.99033
C         25.72220        12.27640        -1.75410
C         24.44120        12.87021        -1.42340
C         25.61502        14.71652        -0.29034
C         24.41712        14.08005        -0.71120
C         25.56801        16.00665         0.32576
C         24.30150        16.70430         0.39452
C         25.57827        18.75424         1.21578
C         24.29838        18.05691         0.99694
C         25.59182        20.15420         1.41751
C         24.38202        20.92118         1.47397
C         25.65962        23.01478         1.60617
C         24.43018        22.29860         1.72995
C         25.68532        24.45922         1.61050
C         24.49232        25.18082         2.10065
C         25.78546        27.36553         1.96044
C         24.43791        26.65983         2.06760
C         25.56643        28.82950         1.58193
C         24.45753        29.55955         2.22126
C         25.61490        31.69474         1.79212
C         24.42803        30.93008         2.11616
C         25.60780        33.12822         2.08015
C         24.44184        33.85378         2.14139
C         25.65017        35.99040         2.40320
C         24.44076        35.29829         2.36122
C         25.70870        37.44389         2.35698
C         24.53934        38.16845         2.44744
C         25.78412        40.24593         1.79975
C         24.56749        39.68343         2.48885
C         25.76072        41.58853         1.17518
C         24.46132        42.22866         0.80477
C         25.59542        44.43682         0.73954
C         24.33056        43.72465         0.81373
C         25.62410        45.83741         0.45690
C         24.39107        46.56079         0.38437
C         25.58352        48.52218        -0.55052
C         24.36001        47.83730        -0.18713
C         25.55331        49.80258        -1.09512
C         24.26682        50.35906        -1.52591
C         25.50886        52.30893        -2.66919
C         24.23156        51.64845        -2.28547
C         25.46927        53.51188        -3.40882
C         24.13999        54.21738        -3.58209
C         25.34399        55.93035        -5.03115
C         24.13910        55.31350        -4.62559
C         25.29769        57.03957        -5.87523
C         24.06126        57.57490        -6.31987
C         24.00188        58.72721        -7.15206
C         27.12543         9.30129        -3.63143
C         28.25548        11.11323        -2.40577
C         27.07548        10.49426        -2.86455
C         28.20191        12.29494        -1.63360
C         26.92351        12.88482        -1.31658
C         28.07539        14.62862        -0.01439
C         26.89143        14.09286        -0.54678
C         28.01394        15.84829         0.81245
C         26.76330        16.64827         0.74957
C         28.04107        18.71865         1.43985
C         26.77389        18.00281         1.16312
C         28.03885        20.16477         1.17997
C         26.83514        20.87705         1.31213
C         27.98018        23.01453         0.61921
C         26.82440        22.30047         1.26322
C         28.03169        24.49286         0.87125
C         26.81888        25.16208         1.17048
C         27.98567        27.35493         0.63655
C         26.65726        26.62655         0.83141
C         28.01801        28.86546         0.73574
C         26.73993        29.61745         1.03883
C         28.03569        31.77846         1.20791
C         26.76025        31.05546         1.34754
C         28.04307        33.27437         1.51256
C         26.94065        33.71911         2.49445
C         28.21338        36.00388         2.41085
C         26.92056        35.25117         2.57430
C         28.19840        37.43834         2.04717
C         26.99294        38.12206         2.11375
C         28.20051        40.20880         1.45278
C         26.97060        39.54287         1.81695
C         28.21102        41.69654         1.44975
C         26.95356        42.42352         1.26347
C         28.13893        44.47873         0.66609
C         26.88635        43.76097         0.89519
C         28.11204        45.85259         0.31268
C         26.85813        46.53164         0.18434
C         28.05845        48.60440        -0.39947
C         26.84062        47.88238        -0.25974
C         28.13092        50.00916        -0.90944
C         26.77140        50.62169        -1.28715
C         27.94330        52.34474        -2.67772
C         26.72691        51.75572        -2.24094
C         27.89154        53.51590        -3.47160
C         26.67689        54.12367        -3.80324
C         26.70193        55.41196        -4.59879
C         29.38701        12.91200        -1.18570
C         30.56015        14.61951         0.11055
C         29.36125        14.06203        -0.35023
C         30.63307        15.68038         1.17456
C         29.30778        16.45041         1.32606
C         30.60525        18.64825         1.14559
C         29.36299        17.94691         1.48894
C         30.56969        20.05957         0.75293
C         29.26386        20.84103         0.75073
C         30.47385        23.01498         0.45228
C         29.30713        22.31992         0.73233
C         30.46478        24.46047         0.41321
C         29.26061        25.17562         0.64278
C         30.46209        27.34089         0.79260
C         29.27540        26.62952         0.73141
C         30.47099        28.75783         1.09388
C         29.30362        29.48921         1.09534
C         30.53228        31.59850         1.78239
C         29.30301        30.97275         1.18379
C         30.55269        33.10306         1.64533
C         29.41413        33.81039         1.87994
C         30.75894        36.00500         1.90235
C         29.49193        35.24668         2.21403
C         30.66367        37.42869         1.53428
C         29.42991        38.09003         1.62958
C         30.55782        40.12364         0.68042
C         29.37140        39.49250         1.30295
C         30.58652        41.61624         0.51951
C         29.47171        42.42541         1.08391
C         30.61411        44.49013         0.30962
C         29.39583        43.83632         0.67381
C         30.61901        45.88683         0.07888
C         29.34499        46.55545         0.14620
C         31.00156        48.80392        -0.94167
C         29.22348        47.96248         0.01425
C         30.57323        49.81286        -1.81024
C         29.32695        50.51633        -1.67256
C         29.18695        51.68073        -2.42514
C         31.84020        16.55662         0.97284
C         33.14966        18.68117         0.93662
C         31.82493        17.93258         0.99965
C         33.04456        20.18488         0.76579
C         31.81867        20.82919         0.68238
C         33.04003        22.98293         0.03379
C         31.73371        22.23977         0.24021
C         33.01029        24.48728        -0.11063
C         31.70081        25.22025         0.06061
C         33.03793        27.32323         0.72856
C         31.72971        26.75456         0.19427
C         33.04763        28.68495         1.14691
C         31.76638        29.37286         1.59909
C         33.02512        31.56721         1.68300
C         31.78493        30.87080         1.37841
C         33.12748        33.00584         1.31698
C         31.81130        33.80306         1.33767
C         33.12899        35.87688         1.11541
C         31.92062        35.24263         1.42224
C         33.11353        37.30063         0.87030
C         31.85358        38.05200         0.97250
C         32.94854        40.07202        -0.16975
C         31.82219        39.37294         0.57748
C         33.13151        41.52004         0.34610
C         31.85342        42.33222         0.29355
C         33.12098        44.39946        -0.02105
C         31.85256        43.70233         0.21722
C         33.05869        45.79208        -0.32846
C         31.86914        46.52669        -0.38254
C         31.93803        47.77457        -1.09832
C         34.25494        20.92829         0.71252
C         35.45614        23.06928         0.64705
C         34.27972        22.30917         0.47327
C         35.51080        24.46430         0.48419
C         34.34091        25.25631        -0.08237
C         35.48772        27.28711         0.80777
C         34.24644        26.63066         0.57355
C         35.50789        28.68040         1.07586
C         34.26949        29.35451         1.30194
C         35.53576        31.56041         1.45386
C         34.31620        30.78645         1.66234
C         35.56886        32.94778         1.64154
C         34.38016        33.74668         1.43038
C         35.56150        35.85680         0.71133
C         34.37110        35.12222         1.04235
C         35.53749        37.24715         0.56202
C         34.29214        37.95794         0.52827
C         35.55310        40.09997         0.14862
C         34.30994        39.29014        -0.17933
C         35.56613        41.46205         0.06051
C         34.32166        42.21417        -0.35224
C         34.31373        43.70425        -0.09766
C         36.70291        25.15375         0.72353
C         37.95802        27.28719         0.86274
C         36.74707        26.58057         0.75415
C         37.98654        28.70345         0.95386
C         36.75102        29.38082         1.06770
C         38.04269        31.61287         0.95796
C         36.73588        30.84649         1.02754
C         38.04684        33.00504         1.45924
C         36.86093        33.56825         1.89853
C         38.10148        35.89045         0.73710
C         36.84515        35.24299         0.20976
C         38.03777        37.26860         0.79104
C         36.80363        37.98781         0.53105
C         36.76461        39.36599         0.44581
C         39.23250        29.44901         1.01882
C         40.50190        31.59408         1.27689
C         39.28789        30.82722         1.08785
C         40.50568        32.96275         1.35306
C         39.28836        33.75301         1.33455
C         39.28376        35.11890         1.05907
O         29.13772        42.21299         2.49014
O         19.79596        23.95431        -1.19411
O         16.05772        40.15090         3.90879
O         22.10786        48.08125         1.55585
O         36.83447        34.45557        -0.72268
O         27.64760        35.74402         3.75315
O         19.49498        39.03343         4.12101
O         34.41881        38.91660        -1.65558
O         14.44603        34.33522         4.48476
O         20.77763        33.53632         1.34628
O         30.15853        40.77853        -0.60827
O         28.72444        18.40940         2.72541
O         37.28286        31.36862        -0.25978
O         23.96762        24.71631         3.40717
O         27.48086        50.97558        -0.04230
O         23.79572         9.02519        -6.09780
O         22.83514        29.04167         4.08177
O         17.83792        22.81781        -2.37645
O         19.78882        54.01365        -2.68717
O         21.18742        50.94410        -4.36882
O          8.93462        29.02665         0.68183
O         32.35930        22.35705        -1.09012
O         23.93149        51.70681        -0.86931
O         16.29333        44.91791         3.29061
O         18.91331        12.99751        -0.76121
O         14.98748        31.15877         0.25117
O         33.66466        31.15497         2.96954
O         20.87696        13.93830         0.44251
O         15.82822        37.16100         4.47241
O         25.64984        29.18472         0.16071
O         19.63471        30.47967         4.85073
O         22.92990        32.26098         0.85437
O         13.06286        36.70599         4.85486
O          9.23180        34.45461         3.64622
O         21.28880        26.75314         3.83593
O         18.93017        17.69138         0.48127
O         17.53198        37.81918         1.36809
O         19.15679        49.70697        -3.47125
O         30.32307        48.75578         0.29512
O         23.29074        18.14600         2.08278
O         18.39617        26.68003         3.14092
O         21.69054        40.40941         3.69457
O         29.77454        20.23447        -0.50797
O         30.42795        35.60034         3.29050
O         20.60306        50.03649        -0.01947
O         22.17165        41.62770         0.33990
O         25.28336        41.63106        -0.26294
O         32.21018        24.84945        -1.27447
O         23.45269        52.06073        -4.59828
O         26.50163        27.28091         3.12889
O         28.77357        31.55167        -0.05356
O         32.39716        33.26768         0.08696
O         22.50737         9.87496        -1.90002
O         28.44116        15.74013         2.24705
O         27.98595        28.20121        -0.57037
O         14.88064        39.29875         0.55015
H         15.70878        38.76614         0.52669
O         23.23404        14.09948         1.27418
H         22.31693        14.08323         1.63761
O         21.75810        31.62673         4.19788
H         20.58330        30.61617         5.10336
O         30.36350        31.38682         3.22682
H         31.23900        31.47096         3.66133
O         23.81275        54.84013        -2.30634
H         24.56403        55.40535        -2.03217
O         34.70372        25.51460        -1.46170
H         33.86284        25.70193        -1.94121
O         27.73054        33.95622         0.26823
H         28.16205        33.44056        -0.45288
O         19.11575        16.64748        -3.06199
H         19.20146        17.57712        -3.36130
O         14.22246        26.57944         1.92624
H         13.49147        25.94620         1.75654
O         20.56680        21.63366        -2.04226
H         20.20718        22.47147        -2.42501
O         36.87646        34.66905         2.70947
H         35.96347        34.89791         2.97715
O         31.69260        27.29422        -1.16396
H         30.92578        26.89972        -1.63127
O         21.78425        48.68350        -3.21930
H         21.21155        48.99316        -3.96434
O         10.61043        37.69871         4.30097
H         11.48510        37.40812         4.70719
O          7.64821        32.49155         3.09267
H          7.82352        33.13606         3.81860
O         11.24444        36.01407         1.09063
H         11.22630        36.92202         0.70896
O         12.87719        28.93903         2.17118
H         13.38842        28.16547         2.51619
O         19.68554        43.02329         4.00133
H         18.99597        43.64952         4.30586
O         25.91331        26.64320        -0.38443
H         26.13396        27.49193        -0.84547
O         35.65483        38.21415        -1.89786
H         35.35351        37.30754        -2.15188
O         13.19727        31.19834         3.42550
H         12.33688        31.46983         3.81202
O         17.42331        15.13882        -0.22111
H         17.48643        14.21894         0.12024
O         23.33118        37.55329         4.36460
H         22.46352        37.26804         4.72573
O         15.45932        22.36913        -3.62012
H         16.37874        22.73185        -3.58091
O         27.23927        33.18213         3.79282
H         27.61243        33.91833         4.33468
O         34.22935        42.14907        -1.80063
H         33.72733        41.33423        -2.05266
O         33.45143        41.39187         1.75554
H         33.57377        42.29062         2.12776
O         17.44558        31.55517         4.69451
H         18.06078        31.06005         5.29141
O         33.97298        18.15481        -0.11297
H         33.59756        18.44317        -0.97030
O         30.87567        14.96334         2.42592
H         29.98799        14.78454         2.81874
O         20.48683        46.56062         2.87829
H         20.80598        47.49016         2.94003
O         19.85875        33.92833         4.86435
H         19.05746        34.18671         5.36735
O         22.66565        22.40140         3.32467
H         23.16206        22.89460         4.01662
O         13.87323        44.19351         3.58421
H         14.70071        44.29688         4.11209
O         23.57901        46.08247         2.53988
H         23.44455        47.02804         2.77431
O         24.66123        40.06322         3.88976
H         24.04001        39.48609         4.39409
O         22.63346        18.62385        -1.46538
H         22.52337        19.57801        -1.67320
O         11.39512        34.95544         4.60846
H         11.97619        35.46527         5.24396
O         11.63134        28.88051        -2.23682
H         12.36702        29.52694        -2.08349
O         27.39529        56.42958        -3.85200
H         26.91636        56.58019        -3.01186
O         32.47659        40.20057        -1.53050
H         32.21437        39.31774        -1.86440
O         31.75824        29.11673         3.05074
H         32.50684        29.64166         3.42639
O         12.04022        39.05016         0.30919
H         12.99184        39.02951         0.03974
O         12.92108        30.82989        -0.97421
H         12.40542        31.63359        -1.19167
O         27.65776        22.90951        -0.83847
H         28.43942        23.23544        -1.33615
H          5.28948        31.69240        -0.37523
H          5.14710        33.97393         0.49656
H          8.20942        28.10591        -2.46405
H          6.45670        30.08805        -1.27457
H          6.27813        35.92918         1.20256
H          7.42792        37.99718         1.62008
H         10.51375        23.71861        -2.49532
H          9.25983        25.71244        -2.11180
H          8.57552        40.05970         1.67015
H          9.78164        42.21230         1.80981
H         12.78020        19.41753        -2.77843
H         11.65055        21.56875        -2.63583
H         10.96990        44.23719         1.14680
H         12.25333        46.17240         0.30078
H         15.14609        15.18068        -3.37556
H         13.94833        17.25517        -2.98949
H         13.42574        48.08354        -0.51172
H         14.60724        49.89966        -1.63506
H         17.72330        11.33109        -4.68683
H         16.44526        13.20321        -3.94062
H         15.76863        51.65115        -2.86958
H         16.92361        53.48518        -4.09862
H         20.22353         7.39812        -6.23570
H         18.96563         9.40558        -5.44349
H         18.24822        55.33143        -5.38963
H         19.42180        57.25504        -6.31373
H         23.60879         3.99623        -6.78618
H         21.47902         5.25407        -6.76818
H         22.74447        60.12144        -8.21584
H         20.61693        59.02711        -7.53580
H         25.70819         4.95876        -5.89993
H         26.94215         6.93861        -4.92075
H         26.23645        57.51936        -6.18849
H         24.93648        59.21999        -7.45545
H         28.10167         8.83689        -3.83365
H         29.23233        10.67193        -2.65242
H         28.83193        53.97611        -3.80796
H         27.31804        55.24212        -5.52213
H         30.35750        12.47092        -1.45710
H         31.50514        14.13551        -0.17878
H         31.19878        50.06366        -2.68045
H         30.07956        52.07931        -2.93077
H         32.80499        16.04047         0.85887
H         33.69678        18.46979         1.89644
H         33.98817        46.28251        -0.65523
H         32.75095        47.88870        -1.83160
H         35.20143        20.40460         0.91101
H         36.36835        22.54723         0.97606
H         36.50800        42.00976         0.22344
H         35.23398        44.26269        -0.33360
H         37.61500        24.58570         0.96451
H         38.90673        26.73098         0.82592
H         38.93108        37.85603         1.05821
H         37.69643        39.94215         0.55656
H         40.16846        28.87089         1.06672
H         41.45780        31.04901         1.30461
H         41.46846        33.49432         1.39902
H         40.24934        35.65178         1.05257
