         228
 CSIRO Nanostructure Databank - Neutral Graphene Oxide Data Set
C        -10.45181         0.92007         1.76454
C         -9.38925         1.60835         1.06113
C         -8.38304         0.79429         0.39303
C         -7.46097         1.47031        -0.55693
C         -6.32020         0.70067        -1.17614
C         -5.05551         1.45274        -1.55107
C         -3.78315         0.65576        -1.74312
C         -2.47341         1.41510        -1.59252
C         -1.21416         0.63679        -1.25224
C         -0.16403         1.40061        -0.53383
C          0.83900         0.87933         0.24576
C          2.15587         1.43252         0.41859
C          3.09474         0.36929         1.04175
C          4.99984         1.36933        -0.52125
C          5.57731         0.61628         0.46422
C          7.37559         1.63213         0.86643
C          8.41191         0.74694         0.71424
C          9.71188         1.36628         0.21302
C         10.88435         0.60094         0.77773
C         -9.31320         2.98225         1.07710
C         -8.06878         3.69261         0.63527
C         -7.35476         2.95809        -0.48653
C         -6.11416         3.62719        -0.95197
C         -4.99061         2.92968        -1.31344
C         -3.71461         3.62994        -1.43800
C         -2.50972         2.89620        -1.34852
C         -1.29783         3.59209        -1.13557
C         -0.16858         2.85100        -0.56505
C          1.15667         3.56333        -0.23224
C          2.37970         2.75946         0.05321
C          3.71704         3.50241         0.22795
C          4.96486         2.87863        -0.52992
C          6.19742         3.61354         0.00114
C          7.37527         2.98204         0.37602
C          8.65880         3.66015         0.43359
C          9.78712         2.86665         0.45234
C         -8.24510         5.14879         0.33076
C         -7.25702         5.85207        -0.37128
C         -6.16852         5.09857        -1.05093
C         -4.90786         5.83621        -1.41598
C         -3.64957         5.05412        -1.43138
C         -2.41335         5.72293        -1.36695
C         -1.21460         5.00893        -1.14877
C          0.07326         5.70463        -1.01848
C          1.23750         4.93603        -0.76946
C          2.56828         5.41554        -0.94085
C          3.71101         4.94438        -0.30495
C          4.93830         5.72035        -0.25441
C          6.15420         5.04890         0.00972
C          7.37281         5.75182         0.39368
C          8.58833         5.09426         0.52496
C         -7.23772         7.24557        -0.41906
C         -6.15501         8.08327        -1.06951
C         -4.83656         7.30559        -1.19077
C         -3.64537         7.89901        -1.42379
C         -2.32000         7.21384        -1.57846
C         -1.18414         7.83261        -0.76422
C          0.05474         7.16631        -0.87681
C          1.25577         7.92411        -0.55226
C          2.51441         7.55422        -0.93576
C          3.76782         8.14003        -0.44465
C          4.97237         7.22568        -0.21118
C          6.08762         7.83517         0.57478
C          7.26004         7.14648         0.74015
C         -6.10438         9.37680        -0.26445
C         -5.04070        10.02676         0.24799
C         -3.67200         9.67086        -0.12240
C         -2.57126         9.50817         0.64648
C         -1.28836         9.01706         0.09044
C         -0.15779         9.64298         0.54841
C          1.14468         9.38067        -0.12646
C          2.37100         9.87557         0.60400
C          3.61679         9.36802         0.38000
C          4.80813         9.90563         1.00687
C          5.96703         9.19436         1.05490
C        -10.39448        -0.42249         1.97798
C         -9.30286        -1.21527         1.46657
C         -8.35141        -0.57236         0.58306
C         -7.36656        -1.42604        -0.12701
C         -6.24302        -0.77819        -0.89918
C         -4.93159        -1.48586        -0.98722
C         -3.81197        -0.82160        -1.45807
C         -2.56288        -1.59009        -1.64297
C         -1.23215        -0.89027        -1.38608
C         -0.11673        -1.79178        -0.99132
C          0.90474        -1.33149        -0.14036
C          2.22050        -1.78587        -0.17586
C          3.30735        -1.00734         0.37750
C          4.58201        -1.56554         0.25858
C          5.78462        -0.82042         0.51629
C          7.03000        -1.40148         0.81631
C          8.28359        -0.68863         0.91238
C          9.49648        -1.42449         1.04483
C         10.76224        -0.70443         1.10355
C         -9.15316        -2.54310         1.85818
C         -8.05881        -3.35083         1.43836
C         -7.18828        -2.84062         0.35099
C         -5.90582        -3.53349         0.08840
C         -4.86056        -2.89389        -0.61205
C         -3.66631        -3.65401        -0.95768
C         -2.54507        -3.05338        -1.46150
C         -1.30866        -3.81298        -1.99080
C          0.00246        -3.08975        -1.54951
C          1.28063        -3.72075        -1.43806
C          2.39017        -3.06424        -0.80391
C          3.60302        -3.74623        -0.62242
C          4.75992        -2.95445        -0.18997
C          5.99785        -3.65228         0.25499
C          7.02120        -2.89952         1.10546
C          8.35521        -3.60179         0.95605
C          9.51823        -2.84070         1.04068
C         -7.82373        -4.61466         1.96002
C         -6.71077        -5.40240         1.52872
C         -5.77162        -4.84505         0.63229
C         -4.59804        -5.64104         0.25548
C         -3.76539        -5.13773        -0.86814
C         -2.61915        -5.98353        -1.29145
C         -1.29582        -5.25235        -1.39783
C         -0.24064        -6.16339        -1.97529
C          1.59607        -5.02432        -1.95305
C          2.64841        -5.81525        -1.52081
C          3.72663        -5.14349        -0.84624
C          4.89042        -5.83175        -0.43019
C          5.89346        -5.15190         0.47681
C          7.26474        -5.78668         0.45238
C          8.38774        -5.00769         0.74829
C         -6.54329        -6.74743         2.02131
C         -5.49862        -7.56515         1.64411
C         -4.43198        -7.03188         0.76402
C         -3.63990        -8.05500        -0.03337
C         -2.49570        -7.43766        -0.84625
C         -1.16124        -8.11989        -0.89764
C          0.02184        -7.37923        -1.43201
C          1.33177        -8.08865        -1.62541
C          2.70095        -7.31500        -1.82246
C          3.85426        -7.97688        -1.05381
C          4.96634        -7.24281        -0.58326
C          6.19359        -7.91337        -0.18092
C          7.32095        -7.17985         0.20924
C         -5.31540        -8.91083         2.12926
C         -4.20458        -9.64931         1.81677
C         -3.20121        -9.19410         0.87833
C         -1.99211        -9.82883         0.75075
C         -0.93456        -9.36355        -0.12431
C          0.24904       -10.02446        -0.28279
C          1.38098        -9.49497        -1.08095
C          2.69013       -10.12989        -0.85109
C          3.86925        -9.40593        -0.86975
C          5.12100       -10.06343        -0.55046
C          6.24385        -9.34617        -0.26323
O          4.83116         8.03278        -1.44143
O         -7.96612        -2.53466        -0.86840
O          6.63928        -3.04378         2.51679
H          6.08064        -2.27644         2.76616
O          2.71111         6.49352        -1.82975
O         -3.64963        -5.95908         1.39081
O         -4.57292         1.09540        -2.88533
O         -6.72052        -0.25742        -2.18660
O         -5.90673         5.52438        -2.44608
O          4.83495         3.21485        -1.93516
H          5.07113         4.15824        -2.06843
O          0.60627        -0.36990         0.81892
O         -7.11309         3.60564         1.77227
H         -7.50025         4.11024         2.51919
O         -3.55195         9.29877        -1.48293
O          4.43219         0.76337        -1.60366
H          4.29266         1.45844        -2.28842
O          6.18932         1.29880         1.54105
O         -4.58055        -8.61922        -0.97426
H         -4.05133        -8.94652        -1.73857
O          9.77436         1.20187        -1.24591
H          9.78769         0.23805        -1.42761
O         -2.17670        -8.31115        -1.97768
O          3.04397        -7.47300        -3.21890
H          2.60946        -8.30255        -3.52795
O         -3.73613        -5.77563        -2.19095
O         -1.43543         1.18758        -2.59717
O         -1.68645        -1.20770        -2.74406
O         -1.92314         7.40282        -2.97568
H         -1.99500         8.36340        -3.16488
O          0.68241        -5.59237        -2.84671
O         -8.18100         2.35040        -1.50620
O          1.10372        10.15076        -1.38563
H          1.90604         9.92042        -1.90214
O          5.93894        -3.17275        -1.10201
O          0.12321         3.40417         0.78200
O          1.17327        -9.21851        -2.54384
O         -1.40915        -3.89921        -3.40779
H         -1.49962        -2.98244        -3.75431
O          5.35509        -5.33650         1.82556
H          5.87945        -4.75083         2.42685
O          3.54333         0.59524         2.15590
O         -0.90795        -5.09827         0.01278
H         -1.70301        -5.18610         0.58924
O         -6.60553         8.39319        -2.41614
H         -6.62178         7.53707        -2.90294
O          4.00739         3.51645         1.63014
H          3.95888         2.59652         1.98534
H         11.65130        -1.27716         1.41084
H         11.87039         1.08890         0.80059
H         10.78531         3.32986         0.47571
H          9.49520         5.67109         0.75983
H          8.12033         7.63938         1.21820
H          6.85102         9.63088         1.54368
H          4.75028        10.90317         1.46555
H          2.26348        10.76794         1.24048
H         -0.23701        10.46216         1.27819
H         -2.57325         9.83852         1.69544
H         -5.20187        10.87164         0.93721
H         -7.10193         9.75292         0.01868
H         -8.08426         7.78366         0.03567
H         -9.04413         5.70829         0.84123
H        -10.09578         3.56159         1.59191
H        -11.27380         1.51849         2.18340
H        -11.17424        -0.92698         2.56693
H         -9.87634        -2.97170         2.56858
H         -8.50255        -5.02329         2.72325
H         -7.31200        -7.14033         2.70453
H         -6.05754        -9.31498         2.83381
H         -4.04877       -10.62392         2.30439
H         -1.78369       -10.71356         1.37374
H          0.43001       -10.95243         0.28259
H          2.71246       -11.20150        -0.60139
H          5.13739       -11.16266        -0.53130
H          7.18647        -9.85835        -0.02094
H          8.27921        -7.70744         0.33917
H          9.37519        -5.49813         0.75275
H         10.49485        -3.34890         1.01337
