         271
 CSIRO Nanostructure Databank - Neutral Graphene Oxide Data Set
C        -10.29646         0.74227         1.48416
C         -9.87154         1.43131         0.18656
C         -8.64496         0.73991        -0.41651
C         -7.37932         1.48098        -0.59624
C         -6.24884         0.75232        -1.28216
C         -4.93225         1.48736        -1.25190
C         -3.69191         0.72898        -0.82296
C         -2.65128         1.46106        -0.01850
C         -1.43238         0.73719         0.45046
C         -0.10706         1.48036         0.70147
C          1.09963         0.61915         0.22635
C          2.42096         1.42093         0.26710
C          3.69220         0.68554         0.55527
C          4.90830         1.46400         1.06124
C          6.24124         0.70961         0.76353
C          7.34484         1.39507         0.00316
C          8.65322         0.65175        -0.31341
C          9.83281         1.34583         0.42568
C         11.11115         0.58647         0.12823
C         -9.68362         2.91793         0.39850
C         -8.59554         3.68171        -0.04474
C         -7.35601         2.97245        -0.47111
C         -6.34987         3.70714        -1.34580
C         -4.97978         2.98162        -1.24604
C         -3.85199         3.70143        -0.57435
C         -2.66669         2.96329        -0.05073
C         -1.35556         3.66695         0.24577
C         -0.08746         2.85819        -0.03453
C          1.21202         3.59762         0.27706
C          2.40146         2.91939         0.38331
C          3.71039         3.60867         0.46711
C          4.89514         2.91060         0.60422
C          6.19632         3.62045         0.57799
C          7.38059         2.88243         0.02979
C          8.67630         3.61374        -0.04487
C          9.98551         2.82252        -0.00311
C         -8.59644         5.07894        -0.00153
C         -7.58632         5.95959        -0.69827
C         -6.28416         5.23653        -1.09136
C         -4.97301         5.95957        -0.96517
C         -3.71043         5.14286        -0.93940
C         -2.42976         5.83418        -0.66204
C         -1.32368         5.14493         0.09500
C         -0.04963         5.95899         0.27830
C          1.19663         5.07669         0.45645
C          2.49758         5.80683         0.37373
C          3.76283         5.05830         0.25832
C          4.92832         5.77713         0.19127
C          6.22047         5.10131         0.32956
C          7.42700         5.77196        -0.32617
C          8.68616         4.96349        -0.09950
C         -7.34248         7.27355         0.02854
C         -6.14462         7.94260         0.08476
C         -4.90214         7.31516        -0.33628
C         -3.70258         7.97307        -0.19125
C         -2.45519         7.33281        -0.64816
C         -1.13820         8.02513        -0.64726
C          0.03100         7.01234        -0.84497
C          1.40322         7.66994        -0.95628
C          2.47358         7.28492         0.04273
C          3.74106         8.05719         0.05861
C          5.00632         7.23699        -0.24343
C          6.29209         7.91728         0.18862
C          7.45434         7.21586         0.15223
C         -6.03686         9.31215         0.57329
C         -4.85941         9.99414         0.59197
C         -3.59999         9.36577         0.21797
C         -2.39677        10.03527         0.20900
C         -1.01778         9.38920         0.08441
C          0.03796        10.24511        -0.63257
C          1.33620        10.18046        -0.35312
C          2.61258        10.33835        -0.04049
C          3.85579         9.50580        -0.46004
C          5.10806        10.08787         0.18100
C          6.20540         9.35069         0.45775
C        -10.35712        -0.58887         1.71419
C         -9.99932        -1.61641         0.73908
C         -8.73717        -0.56581        -0.78125
C         -7.58590        -1.46795        -1.06712
C         -6.26629        -0.74654        -1.27829
C         -4.97674        -1.51819        -1.09922
C         -3.68263        -0.77082        -0.84254
C         -2.55704        -1.50190        -0.18181
C         -1.41571        -0.76606         0.39112
C         -0.15064        -1.52462         0.74951
C          1.15717        -0.75437         0.98190
C          2.39999        -1.54812         0.61501
C          3.66612        -0.78849         0.85093
C          4.97108        -1.52855         0.86312
C          6.27945        -0.78699         0.77535
C          7.50353        -1.51768         0.33445
C          8.62879        -0.83817         0.00119
C          9.90556        -1.54299        -0.14948
C         11.11845        -0.72458        -0.18114
C         -9.53152        -2.86803         0.95763
C         -8.97174        -3.62682        -0.24403
C         -7.65295        -2.94230        -0.72869
C         -6.38418        -3.54187        -0.11970
C         -5.06258        -2.92247        -0.58785
C         -3.84002        -3.62711        -0.00629
C         -2.53820        -2.87607        -0.13133
C         -1.30336        -3.61168         0.08259
C         -0.12502        -2.94506         0.36547
C          1.14079        -3.72381         0.63568
C          2.41469        -2.90871         0.47695
C          3.66352        -3.64671         0.24207
C          4.95233        -2.89960         0.26155
C          6.24369        -3.62628         0.08962
C          7.52780        -3.01218         0.68208
C          8.80714        -3.80968         0.20028
C          9.96665        -2.90174        -0.13928
C         -8.76573        -5.11352        -0.01949
C         -7.58762        -5.77833        -0.09930
C         -6.31341        -5.06632        -0.15961
C         -5.12275        -5.74019        -0.09393
C         -3.82623        -5.06736        -0.53951
C         -2.54379        -5.79251        -0.18942
C         -1.31880        -5.08092        -0.08346
C         -0.10919        -5.79571        -0.10579
C          1.16653        -4.99467        -0.22135
C          2.41864        -5.76723         0.10617
C          3.67556        -4.98736        -0.03886
C          4.93974        -5.66366        -0.52934
C          6.20085        -5.13954         0.17701
C          7.41277        -5.80058        -0.46292
C          8.50102        -4.85094        -0.92569
C         -7.55337        -7.28037        -0.34253
C         -6.40404        -7.93901         0.42163
C         -5.08559        -7.19409         0.20760
C         -3.81352        -7.93145        -0.04576
C         -2.54183        -7.19029        -0.26317
C         -1.33704        -7.92548        -0.22634
C         -0.10042        -7.22048        -0.18920
C          1.11906        -7.96890        -0.15473
C          2.39596        -7.24928         0.01232
C          3.64220        -7.97408        -0.33578
C          4.91124        -7.20143        -0.52244
C          6.20539        -7.94702        -0.17188
C          7.39935        -7.13661        -0.65575
C         -6.26144        -9.42946         0.18186
C         -5.12002       -10.06973        -0.11305
C         -3.84980        -9.36536        -0.52339
C         -2.55800       -10.07769        -0.21059
C         -1.35032        -9.38134        -0.19174
C         -0.09667       -10.06711        -0.09725
C          1.11980        -9.37842        -0.08309
C          2.41206       -10.16272         0.16118
C          3.68777        -9.42794        -0.16639
C          4.90389       -10.07633        -0.47371
C          6.09704        -9.38515        -0.61306
O         -1.56006         4.50824         1.40755
O          6.88790         2.13839        -1.16871
O          1.07825        -4.13623         2.01726
H          1.22511        -3.33029         2.57681
O         -4.20557        -7.61455         1.33724
O          0.86260         0.26296        -1.15517
H          1.75529         0.18600        -1.57865
O         -4.89743        -2.66606        -2.01006
O         -3.14086         0.00380        -1.96870
O          1.30152        -0.41616         2.41104
O          3.31227         0.96395        -0.82974
O         -7.34564        -7.50499        -1.73906
H         -8.02513        -7.01052        -2.24130
O          2.91622         8.01848         1.24657
O          1.30478        -4.61287        -1.61428
H          0.45721        -4.22495        -1.91895
O          4.75449         1.54741         2.48922
H          5.27991         0.80913         2.88737
O         -3.74923         3.43552         0.84389
O         -0.19427         2.66285        -1.45899
H          0.35857         1.88764        -1.72713
O          5.67935        -2.93884        -1.04052
O          1.89150         5.49646         1.67615
O          6.65961         0.00948         1.96618
O          1.72729         8.17759        -2.02175
O         -2.50791         1.07568         1.39128
O          4.19849        -7.66270        -1.70002
O         -4.01538        -3.72839         1.43767
H         -3.23527        -4.19312         1.81067
O          4.27187        -1.26968         2.10365
O         -1.15374        -1.25801         1.77283
O         -3.80717        -5.10069        -1.98484
H         -4.42372        -4.42683        -2.34961
O          6.27366        -8.06057         1.27614
H          6.36403        -7.14210         1.65215
O         -1.93848         8.03471        -1.85435
O         -6.43273         0.03537        -2.52042
O          7.37914        -3.16879         2.06832
O          2.42244        -6.56317         1.33161
O         -5.68116         5.90934        -2.25053
O         -2.73151         5.31785        -2.00342
O         -6.81953         2.14720         0.60885
O         -4.64382         2.27253        -2.45802
O          7.22176         5.76971        -1.75758
H          6.41708         6.33531        -1.95873
O         -9.98726        -1.17567        -0.61421
O         -6.85526         3.53999        -2.67601
H         -6.24936         4.01083        -3.28913
O         -0.60673         9.20460         1.44259
H          0.33846         8.94085         1.46985
O          2.37328       -11.42313        -0.51120
H          2.39121       -11.26216        -1.47681
O         -0.22675         6.71187         1.48372
H         -0.25531         6.07882         2.23447
O         -8.24886         6.34283        -1.94360
H         -7.53071         6.59823        -2.56830
O         -7.71021        -2.53211        -2.10144
O          4.98042         7.16157        -1.66253
O          6.47290         4.55297         1.66628
O          9.24686        -4.60480         1.31687
H          8.82632        -4.17156         2.11093
O          6.13586        -5.42193         1.58799
H          6.63933        -4.67893         2.05941
O          0.02172         1.73857         2.09559
H         -0.88126         1.84709         2.47029
O         -6.56408        -3.17454         1.27622
H         -5.78976        -3.52026         1.78372
O         -0.14460         6.30401        -2.07429
H         -0.80469         6.79972        -2.61976
O          8.08161        -4.21572        -2.13416
H          7.10194        -4.13741        -2.15078
O          9.55460         1.34354         1.83754
H          9.41582         0.41810         2.13173
O          5.11881        -5.28286        -1.91335
H          4.48250        -5.80538        -2.45129
O         -3.87969        -9.26148        -1.98695
H         -4.05977       -10.15261        -2.35294
O         -6.75316        -7.79044         1.81781
H         -5.93044        -7.95187         2.33288
O          8.91490         0.76711        -1.73004
H          8.15703         1.26923        -2.12163
O          4.05723         9.50280        -1.86372
H          3.34822         8.95241        -2.28077
O         -9.92208        -3.59533        -1.32143
H         -9.51216        -3.09680        -2.06785
O         10.61210         2.87401        -1.28821
H         10.17088         2.19516        -1.85350
O          1.07313        -1.61752         3.18837
H          0.12081        -1.52085         3.44493
O        -10.98757         1.33729        -0.73659
H        -10.68449         1.63412        -1.61975
H         12.07118        -1.23977        -0.37865
H         12.05669         1.14832         0.15972
H         10.67665         3.32571         0.72210
H          9.65041         5.49559        -0.12034
H          8.41579         7.70538         0.37582
H          7.09859         9.84458         0.87210
H          5.12524        11.17149         0.37683
H          2.84212        11.16507         0.66072
H         -0.28804        10.81822        -1.51893
H         -2.39754        11.09633         0.50605
H         -4.83849        11.04038         0.93118
H         -6.96259         9.81311         0.89322
H         -8.25144         7.80155         0.35781
H         -9.49865         5.58567         0.37657
H        -10.57583         3.45895         0.75348
H        -10.56441         1.41420         2.31543
H        -10.63508        -0.93485         2.72282
H         -9.48396        -3.29993         1.96622
H         -9.69834        -5.70093        -0.00900
H         -8.53065        -7.73848        -0.02076
H         -7.16171       -10.02679         0.39880
H         -5.12313       -11.16990        -0.18993
H         -2.54622       -11.17913        -0.18190
H         -0.09078       -11.16470        -0.02458
H          2.43465       -10.40091         1.26458
H          4.89529       -11.17112        -0.59022
H          7.01700        -9.94022        -0.85124
H          8.25899        -7.65237        -1.11196
H          9.44169        -5.41832        -1.14163
H         10.94941        -3.39320        -0.22028
