         257
 CSIRO Nanostructure Databank - Neutral Graphene Oxide Data Set
C         30.52530        31.59377         0.04429
C         30.42714        32.79666         0.41835
C         30.42068        35.97285         0.85318
C         30.41523        37.21383         0.94971
C         30.37561        40.30122         1.13256
C         30.36395        41.56242         0.96359
C         31.25204        29.66051        -3.04432
C         31.31425        30.27009        -1.94358
C         32.86103        31.71650        -0.55318
C         31.49504        31.02881        -0.81941
C         32.82901        32.88432         0.53617
C         31.52934        33.69792         0.54675
C         32.73232        35.89756         0.38054
C         31.49826        35.06355         0.64422
C         32.76673        37.34315         0.76820
C         31.58511        38.06280         0.96075
C         32.74954        40.25317         0.94957
C         31.57048        39.50104         1.04569
C         32.79361        41.75417         1.15216
C         31.36918        42.49790         0.87531
C         32.65391        44.56031         0.57969
C         31.61214        43.85876         0.68023
C         35.39219        27.23930        -0.46681
C         35.24704        28.64542        -0.04225
C         33.99740        29.41614        -0.25667
C         35.31304        31.46255         0.12734
C         34.01304        30.78113        -0.16127
C         35.34483        32.97179         0.28879
C         34.07651        33.70434         0.33146
C         35.33775        35.92327         0.20597
C         34.04186        35.14834         0.13793
C         35.35534        37.38602         0.58289
C         34.05641        38.03793         0.97627
C         35.31182        40.29219         0.63312
C         34.05227        39.56710         1.05779
C         35.25801        41.75100         0.31561
C         33.90252        42.48941         0.31795
C         35.26460        44.58945         1.25134
C         33.98583        43.94075         0.86588
C         35.58161        46.00762         1.32237
C         37.81517        27.17258        -0.87513
C         36.46227        26.65387        -0.66132
C         37.83940        28.62334        -0.55163
C         36.60572        29.35089        -0.18145
C         37.73657        31.53403        -0.52386
C         36.58544        30.82025        -0.28923
C         37.73913        32.99253        -0.43885
C         36.58913        33.67133        -0.09222
C         37.88025        35.88159         0.27067
C         36.60350        35.11914         0.26810
C         37.89866        37.38356         0.53435
C         36.64819        38.11433         0.93142
C         37.85986        40.37249         0.42418
C         36.64862        39.68081         1.09030
C         37.81280        41.77639         0.22905
C         36.53617        42.60859         0.18036
C         37.94021        44.58901         1.15326
C         36.62489        43.73291         1.24945
C         37.99642        46.09102         1.42717
C         36.63246        46.64490         1.38842
C         40.25505        24.42687        -0.02669
C         39.25353        25.00962        -0.44403
C         40.36878        27.17640        -0.42557
C         39.11882        26.42107        -0.80011
C         40.31447        28.60694        -0.51588
C         39.06246        29.30238        -0.55134
C         40.28843        31.56357        -0.88521
C         39.01035        30.79330        -0.76313
C         40.33345        33.09593        -1.08812
C         38.96816        33.78073        -0.79711
C         40.32385        35.95727        -0.38896
C         39.02083        35.24370        -0.45901
C         40.28224        37.43715        -0.48457
C         39.02724        38.18338        -0.03977
C         40.17417        40.37563        -0.58943
C         39.03974        39.65196         0.13784
C         40.33231        41.76987        -0.00749
C         39.04192        42.53517        -0.01597
C         40.45754        44.65718         0.61686
C         39.14563        43.99431         0.46951
C         40.37826        46.14891         0.52620
C         39.26027        46.91894         1.26499
C         40.23749        48.86151         0.27946
C         39.17388        48.25322         0.54223
C         42.80610        24.42358         0.36158
C         41.46211        25.03487         0.61572
C         42.83665        27.20731        -0.15103
C         41.52988        26.50349        -0.01869
C         42.87075        28.69525        -0.10623
C         41.54524        29.38402        -0.19957
C         42.82155        31.59452        -0.52865
C         41.51715        30.87546        -0.34588
C         42.79141        33.05876        -0.20382
C         41.49070        33.78713        -0.35447
C         42.78084        36.00956        -0.40041
C         41.49659        35.28021        -0.40577
C         42.75680        37.49370        -0.27633
C         41.56864        38.16034        -0.47784
C         42.82355        40.34972        -0.58097
C         41.51342        39.62507        -0.67876
C         42.96046        41.77148        -0.05085
C         41.63300        42.50306         0.13347
C         42.84211        44.69271        -0.08337
C         41.65335        44.00207         0.19435
C         42.92730        46.17877         0.19553
C         41.57644        46.89381         0.03376
C         42.76132        48.97568        -0.39684
C         41.55558        48.43870        -0.02811
C         43.85203        25.07664         0.32964
C         45.38258        27.14166         0.49872
C         44.16087        26.45293        -0.05020
C         45.35398        28.71472         0.33136
C         44.05851        29.38183        -0.04405
C         45.37566        31.66071        -0.25275
C         44.10185        30.84596        -0.36314
C         45.29026        33.13385         0.01163
C         44.08228        33.77947        -0.06734
C         45.16434        36.04009         0.51231
C         44.05604        35.26365        -0.17914
C         45.29414        37.47196        -0.00026
C         44.03429        38.20002        -0.22190
C         45.36503        40.22188        -0.78503
C         44.06082        39.56619        -0.37719
C         45.35166        41.76112        -0.91362
C         44.03905        42.52346        -0.81670
C         45.34134        44.74588        -0.71193
C         44.03801        44.02187        -0.65437
C         45.30050        46.17186        -0.80036
C         44.08243        46.88947        -0.56974
C         43.78665        48.21180        -0.63148
C         47.70661        27.39591         0.06565
C         46.68968        26.67110        -0.17059
C         47.97303        28.75470         0.14068
C         46.65264        29.48261         0.23148
C         47.93714        31.71514         0.22250
C         46.68102        30.94003        -0.13382
C         47.82165        33.19194         0.45691
C         46.50804        33.90403         0.34082
C         47.59136        36.10537         1.07259
C         46.46367        35.25924         0.52371
C         47.76454        37.42390         0.31297
C         46.48944        38.13849         0.04881
C         47.81492        40.39323         0.18719
C         46.53592        39.62981        -0.01871
C         47.84099        41.93561        -0.00914
C         46.61744        42.53440        -0.72605
C         47.81041        44.68208        -1.01397
C         46.56986        44.03609        -0.75060
C         47.63872        46.06625        -1.13210
C         46.57431        46.73535        -1.03000
C         50.14433        28.81678         1.57780
C         49.19315        29.42879         0.58680
C         50.00786        31.63681         1.76915
C         49.16198        30.96203         0.70831
C         49.88466        33.12102         2.03539
C         48.97485        33.91413         1.13316
C         49.99665        36.21768         1.90090
C         48.91189        35.39764         1.25011
C         50.27013        37.42712         1.04245
C         49.08476        38.13097         0.40624
C         50.26125        40.13392        -0.61732
C         49.18984        39.67558         0.40894
C         50.16646        41.51679        -1.20721
C         49.11565        42.47671        -0.68612
C         50.01265        44.10897        -2.28817
C         49.06972        43.91501        -1.15746
C         51.14877        29.54795         1.91668
C         52.18509        31.80878         2.76197
C         51.26398        30.89291         2.21847
C         52.19310        33.06154         2.82057
C         50.94898        33.92010         2.94323
C         52.36470        35.97978         2.08947
C         51.11695        35.38629         2.54652
C         52.57048        36.91006         1.29623
C         51.55412        37.62102         0.54925
C         51.55454        39.54209        -2.55406
C         51.18680        39.13830        -1.30125
C         51.31305        40.68033        -3.12157
C         50.82703        41.83022        -2.57747
C         50.58635        43.18946        -2.90075
O         50.25556        36.25556         3.33074
O         39.67440        30.99464        -2.08137
O         38.65978        34.80001        -1.80606
O         41.32729        30.29584         0.96969
O         46.22719        42.07701        -2.04832
O         46.87739        40.15050         1.29142
O         36.00521        28.93554         1.13340
O         37.55107        37.59036         1.93047
O         46.19893        31.30825        -1.43764
O         42.22537        40.11135        -1.88568
O         38.55271        26.80020        -2.06285
O         49.16033        32.15939         2.84330
O         51.12418        41.22571        -0.12062
O         48.67548        37.49980        -0.84592
O         43.66784        26.77022        -1.34624
O         43.69825        35.65334        -1.52845
O         43.66314        43.31538        -1.94358
O         51.93577        38.24462        -0.59118
O         44.75938        36.14755         1.86915
O         35.48696        32.04576         1.47520
O         40.58929        46.40844        -0.91660
O         34.35958        44.06186         2.24296
O         35.38497        36.97116        -0.81711
O         34.16561        38.73959         2.24961
O         49.58135        34.76828         0.11170
O         36.81398        39.99937         2.42877
O         48.28590        32.65289        -0.82683
O         38.21213        45.12712         2.48801
O         45.96415        29.31499         1.53936
O         38.93030        43.63672        -0.94505
O         49.89466        30.30329        -0.34130
O         40.96321        41.87275         1.29981
O         49.73749        43.57547         0.07189
O         35.25482        40.73022        -0.75774
O         41.86693        33.26864         0.94674
O         33.19684        35.62805        -0.98045
O         37.42837        35.20984         1.48645
O         43.52166        31.15209        -1.70561
O         39.28758        37.87981        -1.46984
O         32.85597        32.25735         1.83585
H         33.79623        32.03462         2.06005
O         40.65863        33.31665        -2.46480
H         40.06668        32.75797        -3.01579
O         47.23975        36.47557         2.42437
H         46.23461        36.49397         2.50243
O         45.57174        39.70991        -2.12955
H         44.85792        40.04991        -2.71057
O         47.77186        42.51718         1.30225
H         48.26290        41.94272         1.92858
O         36.42029        43.27863        -1.08361
H         36.55142        42.62614        -1.80377
O         49.65493        40.07535         1.70268
H         50.33686        40.77826         1.57441
O         39.77512        47.16278         2.56935
H         39.03924        47.39741         3.17192
O         32.89871        28.69940        -0.54846
H         33.12070        27.74588        -0.60525
O         45.42082        26.83842         1.86886
H         46.01029        27.49066         2.31340
O         33.20260        32.33317        -1.80123
H         32.94047        31.73344        -2.53612
O         50.47793        33.85445         4.26244
H         50.32889        34.76575         4.60090
O         33.45853        42.57745        -1.03390
H         33.86057        41.83475        -1.54009
O         43.54783        41.63581         1.26704
H         42.82219        41.46018         1.90912
O         43.26059        46.29702         1.60116
H         43.33605        47.24767         1.83157
O         41.24861        25.20542         1.99111
H         41.28385        24.33578         2.43986
O         39.69057        40.57278        -1.93559
H         39.63493        39.68595        -2.36253
O         36.66894        43.05722         2.48857
H         36.93229        43.68999         3.19249
O         33.08517        41.94812         2.52530
H         32.61210        41.28789         3.07291
