         717
 CSIRO Nanostructure Databank - Neutral Graphene Oxide Data Set
C         22.73455        27.43660        -0.21918
C         22.74248        28.78863        -0.31717
C         22.78243        31.73700        -0.78263
C         22.81164        33.10511        -0.90644
C         22.92408        36.04634        -0.71508
C         23.00075        37.43392        -0.64910
C         23.05951        40.35453        -0.62497
C         23.04156        41.61880        -0.15787
C         23.01881        44.33077         0.94821
C         23.00840        45.70243         1.16721
C         25.08873        24.64591         0.51140
C         23.99788        25.22957         0.00095
C         25.21597        27.41983        -0.20834
C         23.97277        26.63546        -0.53826
C         25.20274        28.82632        -0.44656
C         23.96230        29.54327        -0.55706
C         25.22807        31.64993        -0.92805
C         23.98016        30.95120        -0.75153
C         25.25344        33.06802        -1.15118
C         24.02797        33.83649        -1.08016
C         25.24850        35.99148        -1.53343
C         24.03912        35.26516        -1.08273
C         25.41824        37.44316        -1.21295
C         24.21469        38.14261        -0.80647
C         25.49175        40.17613        -0.24074
C         24.26306        39.54679        -0.54067
C         25.51524        41.50245         0.26621
C         24.18955        42.12121         0.67754
C         25.45997        44.29662         0.96857
C         24.22515        43.62312         0.82236
C         25.46154        45.70490         1.20969
C         24.22154        46.40855         1.29503
C         25.41792        48.49230         1.68364
C         24.23204        47.81295         1.54515
C         27.74969        23.20646         0.58829
C         27.67806        24.64583         0.67571
C         26.35383        25.39886         0.83828
C         27.60894        27.48039         0.18429
C         26.38737        26.77212         0.19450
C         27.62818        28.82570        -0.20723
C         26.43541        29.53137        -0.49032
C         27.68713        31.62888        -0.97230
C         26.45614        30.93812        -0.82516
C         27.72339        33.00978        -1.24222
C         26.49605        33.72139        -1.34460
C         27.80179        35.87043        -1.77600
C         26.50102        35.14552        -1.71956
C         27.84240        37.36489        -1.69011
C         26.63754        38.11330        -1.24646
C         27.99003        40.23972        -0.27061
C         26.75529        39.33369        -0.29580
C         27.98242        41.37541         0.73724
C         26.70795        42.18477         0.60038
C         27.93300        44.28523         1.16965
C         26.70985        43.57005         0.92559
C         27.91583        45.67387         1.39393
C         26.68970        46.40658         1.40376
C         27.91107        48.56682         1.64574
C         26.67568        47.82592         1.60592
C         27.91117        50.01560         1.70383
C         30.20345        23.17878         0.88130
C         28.94084        22.53246         0.61086
C         30.12795        24.64250         1.13730
C         28.85083        25.34943         0.81735
C         30.17038        27.53431         0.56511
C         28.84812        26.82817         0.70367
C         30.19890        28.74757        -0.31500
C         28.91702        29.44965        -0.57270
C         30.27473        31.61004        -1.00105
C         28.96143        30.92986        -0.71814
C         30.21088        33.01236        -1.47154
C         29.01096        33.67512        -1.42294
C         30.26032        35.87855        -0.89762
C         29.01379        35.15304        -1.28943
C         30.33464        37.36853        -1.08631
C         29.19796        37.94958        -1.55681
C         30.47878        40.35308        -0.36721
C         29.17619        39.98660        -0.88698
C         30.46807        41.57446         0.37487
C         29.25113        42.21201         0.69962
C         30.42355        44.33697         1.12732
C         29.21885        43.58206         1.07538
C         30.43256        45.74400         1.29411
C         29.17690        46.39798         1.81033
C         30.37573        48.59811         1.53506
C         29.14535        47.89213         1.59663
C         30.35020        50.08326         1.42030
C         29.05149        50.74040         1.62335
C         32.67292        20.44239         0.37512
C         31.49421        21.11379         0.51980
C         32.70412        23.10174         1.47477
C         31.42031        22.49968         0.90208
C         32.73561        24.65643         1.42558
C         31.41769        25.40125         1.29748
C         32.79093        27.50639         0.56954
C         31.48083        26.86604         0.93040
C         32.79454        28.68674        -0.36109
C         31.51316        29.40227        -0.65733
C         32.73177        31.49946        -1.24278
C         31.55222        30.83890        -1.03663
C         32.69977        32.83779        -1.91964
C         31.49995        33.73915        -1.67225
C         32.73886        35.84733        -0.45441
C         31.56642        35.17379        -1.17848
C         32.76104        37.35643        -0.68216
C         31.60172        38.09829        -0.83214
C         32.91373        40.15957        -0.17834
C         31.62866        39.54162        -0.50622
C         32.97356        41.52694         0.20201
C         31.74823        42.16897         0.70652
C         32.93143        44.43605         0.79307
C         31.72300        43.65860         1.05697
C         32.89282        45.80927         0.96055
C         31.63503        46.47682         1.25848
C         32.87815        48.60575         1.60813
C         31.60140        47.90202         1.45970
C         32.92210        50.16645         1.68769
C         31.61810        50.88511         1.48925
C         32.83932        53.00226         1.54786
C         31.70544        52.33744         1.82091
C         35.21418        18.95401         0.08664
C         35.20076        20.33179         0.33954
C         33.95563        21.09507         0.53688
C         35.27731        23.10471         1.07693
C         33.97242        22.42831         0.90616
C         35.32128        24.60690         1.24898
C         34.03906        25.40191         1.25006
C         35.28221        27.45155         0.43223
C         34.06868        26.76434         0.66983
C         35.32067        28.81201        -0.04399
C         34.09145        29.40667        -0.60194
C         35.34129        31.65254        -0.94805
C         34.06404        30.83937        -1.08422
C         35.39449        33.08377        -0.62203
C         34.22214        33.85784        -0.21478
C         35.28253        35.79933        -1.29189
C         34.07155        35.15411        -0.63548
C         35.21372        37.32518        -1.20475
C         34.10836        37.96222        -0.35656
C         35.38191        40.15050        -0.31188
C         34.14008        39.46956        -0.34970
C         35.39461        41.57813        -0.10953
C         34.19167        42.24444         0.18773
C         35.39110        44.51251         0.35204
C         34.10423        43.77047         0.10881
C         35.39544        45.88680         0.68524
C         34.13413        46.57877         0.93227
C         35.37161        48.70540         1.32377
C         34.11880        47.92172         1.22578
C         35.33665        50.15273         0.86593
C         34.10909        50.88992         1.29140
C         35.32374        53.06041         0.90642
C         33.98690        52.32047         0.82442
C         35.35061        54.46998         0.90997
C         37.66111        18.84928         0.08278
C         36.41377        18.23551        -0.05552
C         37.68859        20.25560         0.35310
C         36.46445        20.99182         0.44274
C         37.73600        23.06543         0.54465
C         36.51637        22.39970         0.66033
C         37.81574        24.54285         0.60733
C         36.58916        25.34489         0.93310
C         37.73893        27.42260         0.25439
C         36.53369        26.76096         0.51354
C         37.75001        28.83356         0.13043
C         36.53912        29.50166        -0.14622
C         37.87605        31.68321        -0.31016
C         36.64576        30.90326        -0.62927
C         37.85916        33.09955        -0.57948
C         36.60762        33.76163        -0.70536
C         37.82345        35.93635        -1.03712
C         36.55081        35.26574        -0.57059
C         37.78516        37.27005        -1.38353
C         36.50479        38.05850        -1.34401
C         37.85491        39.84020        -0.45742
C         36.58374        39.39698        -0.70303
C         37.95579        41.93150        -0.15568
C         36.58452        42.44859        -0.49469
C         37.79148        44.59369        -0.10175
C         36.57722        43.88201        -0.02361
C         37.81389        45.93599         0.32010
C         36.63583        46.57361         0.75384
C         37.88259        48.80807         0.80663
C         36.67746        48.00283         1.14944
C         37.86101        50.18289         0.72571
C         36.62830        50.90855         1.24198
C         37.78248        53.07733         0.80585
C         36.54993        52.37360         0.88758
C         37.78811        54.48806         1.00868
C         36.54912        55.16097         1.04808
C         40.14964        16.05021        -0.59451
C         38.97644        16.75478        -0.50128
C         40.12382        18.74328         0.30572
C         38.93512        18.12494        -0.04551
C         40.17457        20.15545         0.83624
C         38.92893        20.93296         0.49887
C         40.23191        23.01576         0.31581
C         38.96223        22.33351         0.44834
C         40.23190        24.41723        -0.17403
C         38.93118        25.17671        -0.16873
C         40.19285        27.39469        -0.50021
C         38.84271        26.67887        -0.46717
C         40.30905        28.84579        -0.11149
C         39.01928        29.57769         0.20208
C         40.33516        31.73671         0.43093
C         39.03881        31.03420         0.05430
C         40.20367        33.28957         0.29902
C         39.08018        33.85228        -0.53116
C         40.32250        35.94460        -1.03283
C         39.07351        35.23650        -0.89019
C         40.33421        37.27661        -1.40737
C         39.06084        37.97603        -1.59122
C         40.35177        40.22974        -0.98174
C         39.07438        39.47288        -1.17001
C         40.28829        41.74206        -1.08558
C         39.06177        42.50108        -0.70045
C         40.24218        44.74462        -1.00522
C         38.96449        43.97733        -0.81812
C         40.34234        45.97926        -0.15705
C         39.13341        46.60026         0.46948
C         40.29874        48.82111         0.25555
C         39.18840        48.06529         0.92821
C         40.21231        50.18097        -0.02895
C         39.03217        50.96122         0.33159
C         40.17545        53.22004         0.25652
C         39.00478        52.37653         0.43155
C         40.25270        54.53308         0.81853
C         39.05108        55.19614         1.19518
C         40.37122        57.14514         1.82995
C         39.13797        56.50917         1.69734
C         42.62156        15.96199        -0.31746
C         41.39695        16.61519        -0.17792
C         42.71681        18.70559         0.55265
C         41.36372        17.96374         0.38877
C         42.69300        20.18573         0.48263
C         41.46889        20.88231         0.49623
C         42.68171        23.02616         0.00830
C         41.42902        22.29780         0.31168
C         42.67807        24.50880         0.02509
C         41.49853        25.17461        -0.20988
C         42.69644        27.46044        -0.11942
C         41.47657        26.63961        -0.41794
C         42.80273        28.82672        -0.80910
C         41.44767        29.66877        -0.75210
C         42.77536        31.75212        -0.16298
C         41.56917        31.07859        -0.17951
C         42.82383        33.20069         0.05168
C         41.56487        34.06505         0.24642
C         42.90587        35.94904        -0.92804
C         41.58488        35.09290        -0.94207
C         42.70029        37.45627        -0.64355
C         41.62009        38.07641        -1.55263
C         42.80178        40.28917        -1.30479
C         41.53151        39.57776        -1.24071
C         42.84921        41.77730        -1.69278
C         41.50894        42.51357        -1.51504
C         42.90059        44.77376        -1.25337
C         41.52688        44.08833        -1.63106
C         42.80651        46.10808        -0.53121
C         41.57991        46.77888        -0.23504
C         42.76906        48.94397         0.02435
C         41.53720        48.13814         0.03113
C         42.67337        50.31972        -0.47848
C         41.37568        50.75093        -0.68108
C         42.61836        53.32823        -0.24091
C         41.32053        52.83053        -0.45769
C         42.72050        54.58801         0.38433
C         41.51404        55.20963         0.86033
C         42.84047        57.17716         1.51135
C         41.56453        56.52294         1.40913
C         43.85172        16.62786        -0.14062
C         45.19210        18.72121         0.17991
C         43.94124        17.98786         0.16132
C         45.16410        20.12402         0.45209
C         43.95392        20.84929         0.44584
C         45.21969        23.09051         0.39417
C         43.98912        22.30525         0.19669
C         45.22380        24.47919         0.28188
C         43.91381        25.22059         0.50367
C         45.23356        27.32411        -0.34950
C         43.94958        26.72844         0.21643
C         45.21765        28.84317        -0.28749
C         44.05290        29.56196        -0.34617
C         45.24912        31.71197        -0.14033
C         44.05043        31.03149        -0.27429
C         45.28349        33.16149        -0.21807
C         44.02141        33.87125        -0.07891
C         45.31673        36.08510        -0.39398
C         44.01742        35.39118         0.01116
C         45.23534        37.49996        -0.83926
C         44.03103        38.17992        -0.85392
C         45.30308        40.29669        -1.20120
C         43.99349        39.59519        -1.14448
C         45.30784        41.78273        -1.01101
C         43.97280        42.44821        -0.90387
C         45.24264        44.61169        -0.15503
C         43.94535        43.89128        -0.57447
C         45.25321        46.03599        -0.73819
C         43.99974        46.76981        -0.37701
C         45.21765        48.92645        -0.82445
C         44.06656        48.21499        -0.14659
C         45.11422        50.44638        -0.75797
C         43.88834        51.09154        -0.74255
C         45.10192        53.38380        -0.78292
C         43.80570        52.60475        -0.79865
C         45.15604        54.69671        -0.08577
C         43.99283        55.27918         0.45536
C         43.99053        56.58482         1.06966
C         47.65547        18.81132         0.05086
C         46.44938        18.11124        -0.04456
C         47.71049        20.15562         0.45925
C         46.43650        20.81492         0.72558
C         47.72824        23.08746         0.53821
C         46.45587        22.39829         0.73043
C         47.68867        24.49207         0.36810
C         46.45649        25.18541         0.35370
C         47.71147        27.42720         0.44941
C         46.42312        26.67031         0.34892
C         47.77864        28.77502        -0.19174
C         46.52336        29.58269        -0.53060
C         47.81097        31.69891        -0.05090
C         46.51543        30.92964         0.20436
C         47.77329        33.13664        -0.41850
C         46.47063        33.82951        -0.48242
C         47.69290        35.87263        -1.45862
C         46.56231        35.30485        -0.60277
C         47.71806        37.40148        -1.45406
C         46.50689        38.16501        -1.07424
C         47.82171        40.27218        -1.00252
C         46.56685        39.54622        -1.03264
C         47.82480        41.69769        -0.43910
C         46.54083        42.49418        -0.60525
C         47.78717        44.61401        -0.44208
C         46.53768        43.85604        -0.46274
C         47.75580        46.07433        -0.61588
C         46.50553        46.80470        -0.48708
C         47.77624        48.99297        -0.48769
C         46.48295        48.28704        -0.20270
C         47.72794        50.43369        -0.82933
C         46.39246        51.15059        -1.05099
C         47.70625        53.39333        -0.90956
C         46.40234        52.65824        -1.06004
C         47.62801        54.74708        -0.31367
C         46.45222        55.31515         0.06535
C         50.18263        20.22744         0.74651
C         48.93823        20.89804         0.63621
C         50.19645        23.01670         0.73183
C         48.94855        22.33518         0.65283
C         50.23940        24.48497         0.55305
C         48.96264        25.24402         0.32304
C         50.23062        27.37387         0.61864
C         48.98984        26.69734         0.52246
C         50.23799        28.89602         0.67736
C         49.07263        29.48627        -0.08905
C         50.25127        31.57130        -0.55867
C         49.07398        30.95164        -0.28955
C         50.29099        32.99841        -0.98686
C         48.99338        33.76836        -1.02483
C         50.24382        35.90200        -1.08701
C         49.03614        35.24667        -1.10009
C         50.37458        37.35421        -1.53757
C         49.04039        38.14914        -1.52896
C         50.30470        40.32291        -1.23632
C         49.01307        39.59824        -1.17837
C         50.30596        41.82914        -1.14644
C         49.03146        42.53100        -0.83942
C         50.26599        44.69464        -0.22237
C         49.02280        43.98699        -0.48724
C         50.26661        46.09034        -0.04457
C         49.06995        46.84309        -0.46322
C         50.20248        49.06578        -0.24309
C         48.98660        48.33385        -0.31698
C         50.18999        50.55806        -0.10677
C         48.94977        51.23609        -0.63114
C         50.23663        53.28898        -0.77746
C         48.97260        52.61450        -0.74876
C         51.38035        20.91226         0.86342
C         52.68316        23.08920         0.85823
C         51.42053        22.32911         0.84048
C         52.68068        24.46331         0.92801
C         51.40124        25.21997         1.18642
C         52.65996        27.51230         1.18930
C         51.43176        26.69495         0.83000
C         52.73517        28.83889         0.44687
C         51.53424        29.48932         0.16333
C         52.80768        31.62711        -0.46212
C         51.51410        30.80071        -0.49715
C         52.74780        33.09958        -0.44417
C         51.52889        33.78407        -0.77401
C         52.62849        35.91574        -0.15526
C         51.46889        35.17754        -0.78640
C         52.62317        37.40334        -0.40538
C         51.52976        38.07399        -0.84360
C         52.75916        40.30801        -0.55696
C         51.57303        39.55365        -1.02756
C         52.77142        41.71798        -0.51128
C         51.63525        42.58993        -1.04311
C         52.59901        44.24876         0.49178
C         51.48060        43.85408        -0.17530
C         52.64158        46.40975         0.84737
C         51.29164        47.01488         0.65224
C         52.63970        49.05390        -0.05876
C         51.40841        48.39114         0.03611
C         52.68782        50.42942        -0.48979
C         51.48110        51.19987        -0.55388
C         51.43840        52.58722        -0.79345
C         55.15163        23.04484         0.77182
C         53.97211        22.39560         0.85103
C         55.21191        24.53339         0.53550
C         53.95170        25.21056         1.05038
C         55.21719        27.41317         0.80876
C         53.95652        26.71311         1.12791
C         55.22162        28.82390         0.54672
C         53.97616        29.50489         0.31793
C         55.25964        31.71055        -0.00804
C         53.95804        31.01111         0.30446
C         55.22134        33.07413        -0.08493
C         53.96001        33.81077        -0.21536
C         55.20292        35.96867        -0.43945
C         53.97932        35.22614        -0.30372
C         55.10540        37.40393        -0.52484
C         53.87918        38.10044         0.05209
C         55.15557        40.24416        -0.15159
C         53.91347        39.57383        -0.25111
C         55.15436        41.63055         0.05483
C         53.95825        42.34935        -0.06822
C         55.07398        44.55071         0.29587
C         53.94368        43.76949         0.23808
C         55.14385        46.06128         0.59910
C         53.84074        46.86478         0.41314
C         55.15945        48.91841        -0.32668
C         53.93030        48.38110         0.35020
C         55.12695        50.22391        -0.81861
C         53.94547        50.97519        -0.85225
C         57.65194        24.60582         1.35037
C         56.45405        25.25267         1.02898
C         57.66662        27.38592         1.02484
C         56.43730        26.68010         0.94693
C         57.69691        28.80260         0.65191
C         56.44129        29.52199         0.44827
C         57.72559        31.70127         0.47658
C         56.55347        30.92579        -0.09787
C         57.76657        33.16740         0.10414
C         56.42819        33.89295         0.31180
C         57.74414        35.91361        -0.20223
C         56.47189        35.29400        -0.27368
C         58.01638        37.19915        -0.75618
C         56.17148        38.21270        -0.91780
C         57.63603        40.24650        -0.48592
C         56.38029        39.55642        -0.47958
C         57.66704        41.61895        -0.17862
C         56.42784        42.33085         0.22479
C         57.54742        44.45670        -0.48467
C         56.38360        43.83850         0.25320
C         57.52306        45.98020        -0.46710
C         56.31811        46.73010        -0.12455
C         57.63973        48.82099        -0.26613
C         56.36549        48.12969        -0.28815
C         58.81785        25.33060         1.61715
C         60.01077        27.52143         1.78427
C         58.84934        26.72995         1.42746
C         60.02918        28.87590         1.68301
C         58.96363        29.60749         0.98101
C         59.88875        31.89664         1.58880
C         58.82891        31.09267         1.03135
C         59.87300        33.27118         1.50799
C         58.85437        33.95482         0.80010
C         59.88594        36.22882         0.98615
C         58.84706        35.34095         0.55509
C         59.91807        37.56545         0.63488
C         58.98099        38.08589        -0.30316
C         60.16249        40.30500        -0.40988
C         58.95100        39.52406        -0.85146
C         60.13322        41.61690        -0.10885
C         58.89098        42.37686        -0.11727
C         60.03846        44.57898         0.07691
C         58.86485        43.78274        -0.11549
C         60.06261        45.94322        -0.01394
C         58.88960        46.73954        -0.38537
C         58.82216        48.16860        -0.09986
O         37.64877        25.12370         1.93464
O         39.45262        33.72308         1.45023
O         43.49820        45.07217        -2.53929
O         44.27409        53.29004        -2.00202
O         43.51195        24.95931         1.83749
O         43.22616        27.48499         1.22577
O         46.35445        35.98969         0.68196
O         41.15856        51.87717        -1.47114
O         35.43302        23.74468         2.40567
O         29.51041        28.60784        -1.62301
O         40.56744        42.04070        -2.53354
O         43.68212        48.72374         1.15614
O         32.13495        28.46847        -1.63375
O         47.07159        53.23972        -2.22331
O         36.15390        48.33397         2.50417
O         43.40423        22.53526        -1.17349
O         47.10963        50.58303        -2.19446
O         32.17695        27.73696         1.88939
O         33.40896        25.26042         2.57779
O         27.87818        36.65952        -2.99836
O         36.25993        31.22180        -1.99555
O         52.39710        30.94972        -1.66411
O         33.53687        33.11955        -2.75434
O         49.46236        42.36194        -2.22892
O         31.56880        34.88156        -2.59443
O         31.88839        42.62015         2.09764
O         31.05028        50.59044         0.16582
O         38.05179        40.75452         0.58434
O         25.65721        35.50305        -2.85307
O         48.59105        46.47482        -1.79805
O         43.53150        42.90033         0.42686
O         30.60192        25.09712         2.46865
O         35.53102        37.96659        -2.46538
O         34.25207        29.74387        -2.01985
O         48.04596        32.71932         0.99588
O         40.01869        45.72395         1.27310
O         39.95394        29.07434         1.24489
O         52.52816        45.18954         1.52803
O         58.22952        46.44684        -1.66005
O         48.73383        28.73787        -1.31190
O         45.46895        41.20741        -2.35084
O         39.20317        44.75364        -2.03852
O         51.13837        39.91634        -2.39062
O         38.94070        39.05352        -2.56607
O         29.38495        27.66025         1.79691
O         49.54673        33.16739        -2.24250
O         42.03162        18.11430         1.70432
O         57.13614        37.63364        -1.76540
O         46.81609        27.30392         1.60253
O         54.09553        25.86576         2.36201
O         29.72498        31.53155         0.38899
O         49.88588        24.87093        -0.80019
O         29.35612        35.44479         0.14962
O         40.90885        27.07140        -1.72888
O         46.39968        21.59160         1.95264
O         29.22585        39.24264        -2.06945
O         33.00122        49.34007         2.88703
O         48.25495        37.88500        -2.73343
O         56.64964        43.10575         1.48216
O         39.32813        24.46237        -1.36621
O         41.42451        44.34737        -3.03236
H         40.59237        43.92599        -3.34707
O         33.83738        43.97268        -1.34087
H         33.82446        44.93992        -1.51009
O         35.28807        50.06806        -0.59680
H         34.86444        50.89966        -0.93221
O         46.31269        48.44975         1.24943
H         47.02370        47.94989         1.70315
O         43.84119        35.77705         1.39079
H         44.72447        35.69146         1.81671
O         41.66778        34.77842         1.47432
H         40.79559        34.63510         1.93741
O         26.81630        38.63945         1.00091
H         27.11629        39.29669         1.68040
O         47.98159        41.51180         1.00846
H         47.17605        41.07421         1.35644
O         53.66187        31.38469         1.70494
H         54.32555        30.95086         2.28254
O         45.21838        44.75410         1.27962
H         44.72761        43.98023         1.63969
O         52.34167        35.81036         1.31206
H         52.31428        34.85383         1.53683
O         38.33653        26.76086        -1.83064
H         38.96977        26.25185        -2.38960
O         45.31348        26.91618        -1.73747
H         44.60414        27.40677        -2.22557
O         50.14070        50.79164         1.36989
H         50.89969        50.30489         1.76103
O         51.18531        25.14706         2.63441
H         52.04695        25.34362         3.06612
O         29.24991        46.23618         3.28058
H         29.40075        45.28417         3.46457
O         45.29310        45.89046        -2.17278
H         45.12301        46.79023        -2.56940
O         41.01415        29.87305        -2.11791
H         40.93961        28.97910        -2.52994
O         39.48605        48.05019         2.35356
H         40.03415        47.24741         2.51879
O         35.37373        35.40466        -2.66391
H         35.38789        36.22073        -3.21596
O         32.38635        35.68432         0.96540
H         33.08097        36.18482         1.46295
O         43.50350        35.84512        -2.24280
H         43.10887        36.54827        -2.81949
O         27.94136        40.81076         2.10170
H         27.75438        41.54518         2.72469
O         58.72825        29.10603        -0.38602
O         47.39074        35.43938        -2.80073
H         47.93950        35.98575        -3.40957
O         45.18145        48.58014        -2.23573
H         45.85683        49.15390        -2.68013
O         43.16871        41.86396        -3.08687
H         42.32437        41.85764        -3.58813
O         50.71973        47.23116         1.98335
H         50.93077        46.43038         2.51240
O         50.78563        37.25404        -2.92247
H         50.85773        38.17697        -3.26522
O         57.28333        44.08113        -1.87170
H         57.81320        44.69191        -2.43505
O         36.44030        35.56846         0.84336
H         37.23041        35.19089         1.29099
O         52.48902        27.91969         2.59345
H         52.88409        27.20332         3.14402
O         59.03761        39.45686        -2.29634
H         58.29864        38.88230        -2.60651
O         53.95646        38.00646         1.50929
H         53.44145        37.20703         1.78110
O         33.29519        33.22594         0.56530
H         32.69360        33.92688         0.94033
O         43.07518        28.53273        -2.20641
H         43.15201        29.38773        -2.68363
O         36.75560        50.92670         2.68542
H         36.77588        49.98585         2.99510
O         52.02401        42.98739        -2.37264
H         51.19778        43.05239        -2.90563
O         55.49308        46.16940         2.02121
H         54.88458        45.57927         2.51723
O         50.08510        29.29089         2.06058
H         50.84067        28.89646         2.56216
O         56.27092        34.05518         1.75874
H         55.45338        34.57409         1.91457
O         40.16725        20.04343         2.30212
H         40.87222        19.38856         2.53377
O         23.95090        41.61141         2.04260
H         23.91373        40.63252         1.98134
O         56.83616        30.77237        -1.54274
H         57.60366        30.14821        -1.59286
O         58.07828        33.19950        -1.31937
H         57.60041        32.44012        -1.74238
O         23.97146        26.47879        -2.00264
H         23.95860        27.37801        -2.39427
O         54.15252        48.76236         1.76527
H         54.84787        48.15363         2.11275
O         26.26268        25.65192         2.27752
H         27.08892        26.09771         2.56494
O         41.56740        34.27792        -2.13239
H         42.35057        34.55176        -2.67390
O         34.41375        37.55681         1.03053
H         34.13344        38.28123         1.62947
O         42.20526        37.68514         0.68312
H         42.62567        37.02164         1.29030
O         55.17819        24.73234        -0.91404
H         55.96492        24.29458        -1.30118
O         36.53265        42.49816        -1.95448
H         35.66195        42.88699        -2.19848
O         32.70240        22.74179         2.87553
H         33.31879        23.36851         3.32462
O         40.48682        31.51739         1.85394
H         40.01396        32.29423         2.26644
O         46.46449        30.64104         1.61302
H         46.75747        31.44952         2.08949
O         42.05057        37.98486        -2.93705
H         41.34642        38.37477        -3.49950
O         46.54125        29.87233        -1.94539
H         47.35531        29.45802        -2.32309
O         33.63352        52.29186        -0.61031
H         32.73090        51.90478        -0.68094
H         21.79021        26.90381        -0.03158
H         21.80096        29.33854        -0.17391
H         21.80793        31.24039        -0.68130
H         21.85692        33.64879        -0.89906
H         21.97446        35.56298        -0.44795
H         22.10141        37.99020        -0.34981
H         22.18842        39.94898        -1.15968
H         22.14277        42.23682        -0.28912
H         22.06050        43.79753         0.89239
H         22.05514        46.24163         1.26034
H         25.02213        23.60354         0.85940
H         23.08146        24.63526        -0.14248
H         25.38036        49.57360         1.86720
H         23.27479        48.34810         1.62082
H         26.82031        22.63665         0.45215
H         26.96017        50.55101         1.82127
H         28.91412        21.44100         0.49263
H         29.01609        51.83843         1.65111
H         32.63964        19.38768         0.07284
H         30.56530        20.57303         0.29342
H         32.91756        54.06888         1.80458
H         30.85398        52.84313         2.30089
H         34.27324        18.39574        -0.00577
H         34.41259        55.04045         0.86550
H         36.34768        17.15858        -0.26303
H         36.52465        56.25536         1.14296
H         40.14270        15.02178        -0.98395
H         38.04186        16.27020        -0.81477
H         40.41668        58.16035         2.24997
H         38.22743        57.04175         2.00533
H         42.63292        14.92139        -0.67250
H         42.87955        58.18352         1.95344
H         44.76964        16.06135        -0.35098
H         44.93271        57.14089         1.16272
H         48.58769        18.27241        -0.16993
H         46.49124        17.04725        -0.31390
H         48.56487        55.28833        -0.11816
H         46.50022        56.30695         0.53561
H         50.20090        19.12890         0.76067
H         50.25705        54.37762        -0.92346
H         52.30835        20.33204         0.95265
H         52.36743        53.14443        -0.98126
H         56.08579        22.46372         0.76014
H         53.97719        21.30032         0.94120
H         56.04254        50.67855        -1.22350
H         53.99754        52.00572        -1.22939
H         57.68337        23.50969         1.42663
H         57.61785        49.91438        -0.15674
H         59.72996        24.80482         1.93236
H         60.85677        27.00071         2.25702
H         60.87355        29.43710         2.10762
H         60.72640        31.40122         2.09752
H         60.68655        33.84113         1.97929
H         60.68668        35.83364         1.62644
H         60.71122        38.21194         1.03599
H         61.13118        39.78546        -0.45560
H         61.07546        42.13594         0.11861
H         60.96664        44.07211         0.37822
H         60.97397        46.48837         0.27284
H         59.73679        48.71060         0.18003
