         210
 CSIRO Nanostructure Databank - Neutral Graphene Oxide Data Set
C         30.42743        31.67956        -0.03888
C         30.47451        32.89274         0.23513
C         30.45318        36.04519         0.68240
C         30.33035        37.25594         0.91389
C         30.43491        40.45649         1.30862
C         30.50922        41.69560         1.28221
C         32.88295        29.02494        -0.85866
C         31.75643        29.54864        -0.65903
C         32.84358        31.63608        -0.16707
C         31.59744        30.89831        -0.29032
C         32.84998        33.05728         0.13169
C         31.57870        33.79040         0.30448
C         32.79407        35.95720         0.37802
C         31.53707        35.15270         0.44668
C         32.74570        37.41728         0.73016
C         31.50249        38.15388         1.27731
C         32.81953        40.32011         0.80843
C         31.45940        39.54843         0.65285
C         32.85341        41.76522         0.83259
C         31.65019        42.53725         1.11536
C         32.96224        44.46108         0.85826
C         31.84360        43.92368         1.09500
C         35.60396        27.57670        -1.33768
C         35.40693        28.91963        -0.92814
C         34.16845        29.58008        -0.74095
C         35.34789        31.66513        -0.17980
C         34.10642        30.97136        -0.36997
C         35.32859        33.05731         0.17817
C         34.06301        33.75699         0.27070
C         35.24479        35.88204         0.72739
C         34.08031        35.20895         0.46397
C         35.29329        37.35166         0.98876
C         34.02276        38.13552         1.04325
C         35.28743        40.25673         0.61489
C         34.02069        39.60704         0.80822
C         35.30989        41.66760         0.43105
C         34.10521        42.42787         0.59391
C         35.40137        44.51693         0.16610
C         34.19566        43.87231         0.54760
C         35.66720        45.91476         0.17589
C         37.98495        27.54651        -1.27063
C         36.69906        26.99669        -1.50495
C         37.90938        28.91053        -0.82771
C         36.64676        29.58986        -0.68403
C         37.82228        31.65877        -0.03731
C         36.59777        30.97525        -0.29852
C         37.78199        33.04385         0.33982
C         36.53929        33.73204         0.44223
C         37.76734        35.93008         1.00319
C         36.47438        35.09778         1.11530
C         37.74866        37.37092         0.61233
C         36.54722        38.08545         0.68109
C         37.73429        40.18065         0.19140
C         36.51161        39.50368         0.50293
C         37.75298        41.60090        -0.00249
C         36.54182        42.32821         0.09655
C         37.74964        44.31273        -0.70944
C         36.53699        43.73799        -0.19103
C         37.87425        46.51684        -0.46496
C         36.61592        46.73030         0.18452
C         40.55486        25.01986        -2.19354
C         39.47358        25.61125        -1.96049
C         40.46420        27.56626        -1.12180
C         39.23218        26.90500        -1.44885
C         40.39278        28.91537        -0.63355
C         39.13449        29.58652        -0.52332
C         40.28941        31.64194         0.17527
C         39.07877        30.96330        -0.11829
C         40.24130        33.05281         0.44408
C         39.01406        33.72949         0.55575
C         40.27953        35.91197         0.46180
C         39.05036        35.18223         0.81964
C         40.24559        37.33558         0.23596
C         38.96527        38.03649         0.24540
C         40.12874        40.12060        -0.49281
C         38.93007        39.42757         0.00864
C         40.17545        41.58074        -0.50910
C         39.00580        42.28830        -0.28351
C         40.23302        44.46267        -0.72428
C         38.99312        43.71524        -0.55028
C         40.25233        45.91040        -0.69563
C         39.19320        46.80476        -0.15239
C         40.74052        48.31792         1.01794
C         39.56830        47.89846         0.69864
C         43.14358        25.12882        -2.08680
C         41.81808        25.59331        -1.90967
C         42.93531        27.60967        -0.89326
C         41.73966        26.92222        -1.31466
C         42.86575        28.91505        -0.29924
C         41.60144        29.58764        -0.25338
C         42.74991        31.60969         0.55138
C         41.54679        30.95096         0.15225
C         42.68807        33.04402         0.85165
C         41.46151        33.78591         0.55842
C         42.75546        35.91487         0.08375
C         41.47748        35.19457         0.45089
C         42.74702        37.37257         0.52067
C         41.45207        38.02536         0.08108
C         42.74409        40.16136        -0.45007
C         41.48134        39.37462        -0.45011
C         42.71464        41.53750        -0.69897
C         41.41275        42.24235        -1.09341
C         42.69879        44.41521        -0.90882
C         41.44242        43.74141        -0.87133
C         42.71448        45.84812        -0.91732
C         41.47645        46.53778        -1.00909
C         42.93940        48.38260         0.58028
C         41.89847        49.00776         1.19723
C         44.15371        25.78254        -1.73312
C         45.39139        27.65959        -0.56003
C         44.23703        27.03255        -1.08057
C         45.29793        28.85544         0.20523
C         44.04483        29.54523         0.22707
C         45.20541        31.66279         0.90610
C         43.98114        30.92632         0.64610
C         45.25595        33.05470         0.79430
C         44.01518        33.82526         0.87655
C         45.23752        35.91624         0.38601
C         44.03120        35.23670         0.51933
C         45.22050        37.35527         0.08914
C         44.01240        38.06512         0.04305
C         45.21432        40.14548        -0.53122
C         43.98631        39.45738        -0.28512
C         45.17149        41.54122        -0.79494
C         43.94900        42.25490        -0.79901
C         45.17234        44.42319        -0.98147
C         43.94248        43.70099        -0.92394
C         45.14174        45.87089        -0.86475
C         43.93557        46.57531        -0.69840
C         43.91268        47.87332        -0.07900
C         47.72457        27.63424        -0.05552
C         46.73742        27.18409        -0.66810
C         47.78931        28.67115         0.91129
C         46.46431        29.37627         0.97129
C         47.67582        31.73438         1.41507
C         46.42667        30.94832         1.29966
C         47.69417        33.09839         1.02875
C         46.48796        33.79457         0.77339
C         47.73036        35.90999         0.38683
C         46.47799        35.21648         0.56925
C         47.71143        37.33346         0.02801
C         46.46855        38.03712        -0.10393
C         47.71223        40.11647        -0.51435
C         46.46862        39.43020        -0.41461
C         47.75025        41.50944        -0.99489
C         46.41609        42.25400        -1.15004
C         47.67679        44.38592        -1.14179
C         46.42539        43.72637        -1.09201
C         47.54227        45.80514        -1.05294
C         46.45718        46.39597        -0.87331
C         50.24114        28.74522         1.58695
C         48.84488        28.97317         1.75424
C         50.16623        31.73185         1.74382
C         48.85333        31.16334         1.95411
C         50.21856        33.10006         1.29934
C         48.93092        33.91798         1.32293
C         50.19753        35.83780         0.13011
C         48.92838        35.22075         0.54484
C         50.25474        37.34814        -0.12978
C         48.91499        38.04775        -0.04955
C         50.18548        40.21252        -0.16239
C         48.92611        39.45828        -0.24066
C         50.21457        41.62338        -0.47047
C         48.99793        42.28583        -0.84496
C         50.20642        44.27650        -0.95769
C         48.92508        43.68604        -1.06989
C         51.16835        29.52778         1.90625
C         52.55052        31.68194         1.60236
C         51.38254        30.92766         1.81748
C         52.53636        32.89513         1.25763
C         51.44263        33.74621         1.02860
C         52.55168        36.05899         0.65962
C         51.49398        35.08156         0.40513
C         52.51434        37.29248         0.70679
C         51.26274        38.12801         0.80999
C         52.44097        40.40149         0.39479
C         51.33680        39.54439         0.32345
C         52.55665        41.61694         0.07813
C         51.45897        42.38685        -0.35553
C         51.31434        43.75813        -0.68371
O         34.67916        37.73981         2.28445
O         37.71183        45.51468        -1.45141
O         47.10793        41.67748        -2.30607
O         50.93270        35.08412        -0.93143
O         32.70354        37.01480        -0.66399
O         48.65717        30.00082         2.73054
O         46.15173        29.90700         2.27386
O         38.60617        35.65601         2.17984
O         40.71194        39.50721        -1.70385
O         43.27823        33.48757         2.11542
O         31.18591        39.41913        -0.72071
H         31.10598        40.30652        -1.12543
O         42.79514        35.92813        -1.37533
H         42.76203        35.00445        -1.70002
O         41.30737        42.04690        -2.54103
H         41.18117        41.07734        -2.68786
O         36.26675        34.79045         2.52425
H         37.14450        34.88448         2.96847
O         50.77638        38.09895         2.14221
H         51.33410        38.67741         2.70218
O         48.78649        34.33685         2.73159
H         48.59538        33.53699         3.26742
O         50.72460        37.56777        -1.46850
H         51.13345        36.72478        -1.78006
O         31.62787        38.26150         2.67533
H         30.96202        38.90426         3.00280
O         41.48895        47.81488        -1.43681
H         40.58224        48.18328        -1.43828
O         42.78108        37.38552         1.97113
H         42.84418        38.31329         2.27787
