         404
 CSIRO Nanostructure Databank - Neutral Graphene Oxide Data Set
C          1.44703         2.16937        -1.73217
C          1.38436         3.51525        -1.50706
C          2.65072         1.42849        -1.56325
C          2.58889         4.27129        -1.13397
C          1.33669         6.48135        -1.03827
C          1.31107         7.85942        -0.81377
C          2.48662         5.72215        -0.76333
C          2.42872         8.55134        -0.31847
C          1.23359        10.80177        -0.35016
C          1.16919        12.12987        -0.05070
C          2.42950        10.01194        -0.14443
C          2.38327        12.91252         0.18539
C          1.19148        15.02370         0.87881
C          1.20885        16.37738         1.20725
C          2.38350        14.29291         0.73072
C          2.43096        17.06910         1.31801
C          2.47670        18.49178         1.53259
C          3.79682         1.96335        -0.97672
C          3.79941         3.44666        -0.70714
C          4.99592         1.17412        -1.01263
C          4.75515         4.15851         0.22332
C          3.62301         6.40326        -0.28137
C          3.60929         7.79567        -0.04063
C          4.77103         5.64498         0.25596
C          4.79041         8.42267         0.50944
C          3.55918        10.62626         0.36533
C          3.67934        12.08605         0.39025
C          4.57451         9.78675         1.09267
C          4.80089        12.73624         1.10445
C          3.63167        14.93023         0.98469
C          3.65200        16.34503         1.19149
C          4.86856        14.18363         1.08528
C          4.89245        17.05631         1.19958
C          3.66158        19.17130         1.54477
C          4.91284        18.48747         1.33868
C          6.15819         1.47713        -0.28662
C          6.04528         3.54184         0.55701
C          7.50839         1.24436        -0.55139
C          7.25553         4.17487         0.56505
C          6.06894         6.32683         0.46646
C          6.01238         7.74885         0.65725
C          7.27582         5.63411         0.57240
C          7.23298         8.43340         1.06864
C          5.85151        10.49870         1.41922
C          5.77936        11.90775         1.65890
C          7.01695         9.75439         1.58862
C          7.65632        13.00021         1.35953
C          6.09469        14.90783         1.05039
C          6.10013        16.34836         0.99686
C          7.35690        14.24869         0.84813
C          7.32215        17.07812         0.82515
C          6.12357        19.18232         1.25776
C          7.34219        18.50518         0.97138
C          8.57618         1.96831         0.08463
C          8.49396         3.34568         0.69969
C          9.82879         1.37536        -0.00231
C          9.78965         4.14665         0.83339
C          8.53559         6.35412         0.75163
C          8.51152         7.80911         0.94761
C          9.73003         5.63948         0.81079
C          9.78872         8.53134         0.88161
C          8.86707        10.85473         1.23602
C          8.71924        12.18093         0.85982
C          9.86882         9.96569         0.73248
C          9.66745        12.74718        -0.12310
C          8.42284        14.97936         0.12162
C          8.51249        16.41493         0.42378
C          9.65985        14.24106        -0.31233
C          9.72936        17.08722         0.25766
C          8.56696        19.19130         0.79871
C          9.76234        18.51127         0.47370
C         11.05903         2.05486         0.23377
C         11.06823         3.47607         0.48483
C         12.26026         1.35871         0.09642
C         12.27046         4.16619         0.41526
C         11.01231         6.36339         0.95217
C         11.01983         7.83014         0.74702
C         12.31957         5.60511         0.76520
C         12.25696         8.49742         0.48952
C         11.03484        10.59417         0.23698
C         10.94263        11.96305        -0.31474
C         12.25844         9.89780         0.18989
C         12.20293        12.71882        -0.61005
C         10.93212        14.98404        -0.31184
C         10.94808        16.36023        -0.05533
C         12.18540        14.26079        -0.57998
C         12.20031        17.07387        -0.06060
C         11.00036        19.19066         0.35197
C         12.20144        18.49236         0.11446
C         13.50467         2.03990         0.00591
C         13.49309         3.49099         0.06703
C         14.70168         1.32408        -0.07485
C         14.69134         4.21764        -0.04052
C         13.55912         6.35570         0.46950
C         13.52476         7.79329         0.41955
C         14.72538         5.62918         0.20244
C         14.71140         8.51910         0.16408
C         13.47293        10.63370        -0.06595
C         13.47467        12.03890        -0.31335
C         14.70900         9.93261        -0.04063
C         14.67974        12.78298        -0.32892
C         13.45959        14.95615        -0.35030
C         13.44121        16.37373        -0.18751
C         14.67333        14.23269        -0.35096
C         14.67646        17.09165        -0.14400
C         13.45110        19.18822         0.08517
C         14.65162        18.51945        -0.03228
C         15.93733         1.97687        -0.46082
C         15.92079         3.54089        -0.46903
C         17.24064         1.33049        -0.32045
C         17.22564         4.22654        -0.39131
C         16.02517         6.31561         0.19292
C         16.01271         7.83083         0.17893
C         17.25463         5.62507        -0.25181
C         17.21266         8.53200        -0.30920
C         15.93388        10.64918        -0.20301
C         15.93078        12.08477        -0.24830
C         17.14814         9.91512        -0.38568
C         17.14416        12.82533        -0.26271
C         15.91175        14.95746        -0.29071
C         15.91406        16.38054        -0.22698
C         17.15315        14.24152        -0.30885
C         17.15969        17.09978        -0.24910
C         15.92650        19.32715         0.01612
C         17.18533        18.52999        -0.22519
C         18.42544         2.03623        -0.45872
C         18.42704         3.49175        -0.53156
C         19.68878         1.36047        -0.43565
C         19.65167         4.19830        -0.63948
C         18.45292         6.34642        -0.49301
C         18.45511         7.81125        -0.56885
C         19.63588         5.60993        -0.73104
C         19.59974         8.49801        -0.95650
C         18.43159        10.63984        -0.46367
C         18.43084        12.11550        -0.29588
C         19.51122         9.98045        -1.28422
C         19.67196        12.85796        -0.57890
C         18.39563        14.96154        -0.33946
C         18.39101        16.38779        -0.32672
C         19.64578        14.26698        -0.43871
C         19.63104        17.10325        -0.37368
C         18.37817        19.21525        -0.36487
C         19.63019        18.53182        -0.44391
C         20.89695         2.03544        -0.58026
C         20.91124         3.48416        -0.73146
C         22.13835         1.33493        -0.49516
C         22.11540         4.16703        -0.86588
C         20.86306         6.29093        -1.19166
C         20.82507         7.78500        -1.37919
C         22.16045         5.59860        -1.00702
C         22.14583         8.51343        -1.44842
C         20.83853        10.74517        -1.24412
C         20.86721        12.16202        -0.80476
C         22.14797        10.01144        -1.31490
C         22.12439        12.83549        -0.73879
C         20.88783        14.96270        -0.39076
C         20.87292        16.40805        -0.32252
C         22.09714        14.23337        -0.45858
C         22.07386        17.14778        -0.29147
C         20.84962        19.23509        -0.56096
C         22.08049        18.55744        -0.48337
C         23.36523         1.98422        -0.62280
C         23.39886         3.41445        -1.10531
C         24.58175         1.31377        -0.41002
C         24.62036         4.17749        -0.64747
C         23.36692         6.29448        -0.94599
C         23.42576         7.75839        -1.19294
C         24.60651         5.59542        -0.67187
C         24.64127         8.53067        -0.81013
C         23.40138        10.71187        -0.93479
C         23.37525        12.10645        -0.79537
C         24.61447         9.93589        -0.81808
C         24.67565        12.89613        -0.89171
C         23.34183        14.91960        -0.09929
C         23.33290        16.47301         0.01206
C         24.62942        14.28742        -0.31305
C         24.60519        17.17106        -0.15126
C         23.34930        19.23462        -0.55519
C         24.55872        18.57161        -0.43319
C         25.81475         2.00942        -0.34294
C         25.80618         3.46379        -0.39251
C         27.02367         1.32294        -0.13786
C         27.01254         4.17331        -0.14085
C         25.80509         6.33196        -0.42365
C         25.83137         7.77961        -0.48204
C         27.00273         5.60331        -0.13896
C         27.04669         8.44863        -0.20401
C         25.89228        10.68246        -0.72250
C         25.90080        12.13009        -0.44421
C         27.15112         9.91325        -0.39530
C         27.05240        12.77161        -0.04624
C         25.78668        14.99645        -0.05277
C         25.81452        16.44728         0.00689
C         27.02442        14.23557         0.22144
C         27.07005        17.14664        -0.00819
C         25.83965        19.35446        -0.59876
C         27.10188        18.57702        -0.27640
C         28.24833         2.00398         0.07226
C         28.22444         3.45495         0.10492
C         29.46673         1.30474         0.22472
C         29.40817         4.15967         0.38413
C         28.22358         6.29647         0.10800
C         28.22900         7.72333         0.08776
C         29.43008         5.57712         0.35327
C         29.47455         8.40997         0.20373
C         28.28402        10.66908         0.18149
C         28.28518        12.04444         0.23617
C         29.49270         9.86994         0.45785
C         29.50578        12.81002         0.77253
C         28.32394        14.99962         0.37036
C         28.30839        16.45293         0.10105
C         29.58858        14.25155         0.27306
C         29.54062        17.11081        -0.03271
C         28.28440        19.25265        -0.29930
C         29.57766        18.60758         0.10788
C         30.69028         1.96289         0.51483
C         30.61973         3.41794         0.76147
C         31.92717         1.31436         0.59357
C         31.93912         4.19315         0.83179
C         30.68525         6.28292         0.38461
C         30.67192         7.70175         0.24219
C         31.92241         5.61594         0.48302
C         31.92212         8.38630        -0.15461
C         30.80346        10.59191         0.44576
C         30.84550        12.08448         0.54929
C         31.93646         9.88413        -0.22128
C         32.09962        12.79669         0.15108
C         30.76434        14.91981        -0.04165
C         30.75675        16.37843        -0.19755
C         32.04003        14.23522        -0.14730
C         31.93212        17.05738        -0.55407
C         30.80374        19.23867        -0.46846
C         31.95697        18.50453        -0.68419
C         33.17982         2.01335         0.72415
C         33.19281         3.44143         0.73271
C         34.41872         1.32784         0.74322
C         34.40545         4.16685         0.72935
C         33.17495         6.30139         0.30356
C         33.20851         7.67562        -0.05577
C         34.39875         5.61190         0.53489
C         34.43625         8.35868        -0.21234
C         33.21915        10.60884        -0.49395
C         33.29619        12.05694        -0.29870
C         34.49618         9.80037        -0.56716
C         34.50558        12.72298        -0.52924
C         33.21380        14.87038        -0.53108
C         33.14107        16.29608        -0.89948
C         34.47933        14.17842        -0.62359
C         34.45486        17.04735        -1.10659
C         33.20888        19.18275        -0.89321
C         34.43148        18.51655        -0.93769
C         35.64771         2.02958         0.84531
C         35.61849         3.45653         0.85782
C         36.91439         1.37736         0.96071
C         36.84975         4.19601         1.12993
C         35.61129         6.33326         0.43996
C         35.64379         7.67928         0.03097
C         36.84954         5.69435         0.91008
C         36.96938         8.32714        -0.31053
C         35.77284        10.54694        -0.44784
C         35.74276        11.98522        -0.60826
C         36.94979         9.84200        -0.32040
C         36.99448        12.68647        -0.72816
C         35.67850        14.88822        -0.83879
C         35.71689        16.30781        -0.93236
C         36.94589        14.14336        -1.02404
C         36.92916        17.04134        -0.82877
C         35.66600        19.18852        -0.80397
C         36.88881        18.49022        -0.74040
C         38.13547         2.08722         1.08583
C         38.13934         3.50838         1.13777
C         39.39886         1.41453         1.21369
C         39.33641         4.26269         1.26626
C         38.13915         6.40074         0.79568
C         38.13519         7.73429         0.46440
C         39.34688         5.70094         1.18195
C         39.30320         8.54877         0.82820
C         38.27814        10.52313        -0.52491
C         38.20376        12.02338        -0.58299
C         39.34059        10.02512         0.44859
C         39.52424        12.69830        -0.66002
C         38.24468        14.93465        -1.06117
C         38.18876        16.38057        -0.76181
C         39.55068        14.21790        -0.87806
C         39.37779        17.09579        -0.50275
C         38.09676        19.19729        -0.54305
C         39.32135        18.53292        -0.39471
C         40.55963         2.12525         1.39531
C         40.56912         3.55682         1.41788
C         41.76774         4.29910         1.56652
C         40.56402         6.41708         1.30445
C         40.56062         7.87074         1.18994
C         41.76249         5.68213         1.52685
C         41.69044         8.65939         1.35525
C         40.64415        10.71313         0.46863
C         40.71082        12.07542        -0.02810
C         41.72419        10.03892         1.02474
C         41.85218        12.85280         0.11477
C         40.72178        14.97497        -0.40473
C         40.64943        16.43038        -0.34200
C         41.85525        14.26041        -0.05311
C         41.78746        17.20201        -0.10558
C         40.52293        19.26857        -0.15868
C         41.72451        18.61098        -0.02295
O         31.79670        12.48328         1.60298
O          8.08521        10.34975         2.28203
O          3.37344        12.73512        -0.87970
O         37.57786        14.53756        -2.29530
O         21.54641        10.61232        -2.52625
O         30.27626        10.07206         1.70534
O         26.84801        10.31138        -1.78505
O          9.89936        12.00707        -1.35370
O          9.13789         3.50389         1.99454
O         36.69333         5.14468         2.26110
O          8.64448        14.66275        -1.29518
O         27.52755        14.61063         1.54675
O          5.94529         2.20434         0.89948
O          6.82782        12.50358         2.38808
O          3.76042         4.10218        -2.02621
O         18.75051        11.17675         0.85288
O         38.86837         9.63989         1.76117
O         31.17056         3.84901         2.04437
O         39.83730        13.29310        -1.96861
O         11.80083         5.90352         2.11312
O         15.78656         2.77461        -1.69710
O         16.26376         7.08271         1.42799
O          4.22571         4.83548         1.41704
O         23.25753        15.60952         1.18856
O         12.17942        13.47480        -1.84188
O         33.65778        16.58329        -2.24660
O         20.64452         6.89144        -2.52884
O         33.79151        10.18189        -1.78386
O         22.97355         8.09309        -2.56781
O         31.58199         9.11740        -1.41175
O         25.91977        19.85940        -1.94623
H         25.96239        19.09545        -2.55714
O         29.67897        18.84888         1.58062
H         28.92965        18.37018         1.99785
O         19.02531        10.05019        -2.64950
H         19.80547         9.90682        -3.23543
O         29.31546        12.86362         2.20294
H         30.20936        12.93566         2.60936
O         24.86460        13.10157        -2.33804
H         24.93891        12.21679        -2.75811
O         15.84669        20.43760        -0.89146
H         15.76250        20.08342        -1.80030
O         37.22920         7.90812        -1.69694
H         37.89693         8.54522        -2.06258
O         23.52707         3.31721        -2.56975
H         23.45943         4.22689        -2.93237
O         38.79891        10.10141        -1.85475
H         38.52911        10.78028        -2.51186
O          3.94629         9.53525         2.41924
H          4.49134         8.86287         2.88233
H          0.54306         1.63025        -2.04983
H          0.41955         4.03505        -1.57795
H          2.65499         0.36696        -1.85002
H          0.43517         5.99941        -1.43985
H          0.38565         8.40226        -1.04811
H          0.29853        10.28032        -0.59781
H          0.19072        12.63064        -0.02279
H          0.22478        14.52891         0.71063
H          0.26266        16.92667         1.31495
H          1.52754        19.03130         1.66667
H          5.02195         0.34440        -1.73619
H          3.67546        20.26166         1.68813
H          7.78961         0.48717        -1.29924
H          6.13086        20.27677         1.37049
H          9.89155         0.34143        -0.37418
H          8.59149        20.28461         0.92109
H         12.23956         0.26644        -0.02890
H         11.03393        20.28069         0.49673
H         14.70342         0.24222         0.12369
H         13.45192        20.28366         0.18226
H         17.27090         0.24971        -0.11637
H         16.00613        19.77951         1.04491
H         19.69526         0.26646        -0.31818
H         18.36652        20.31494        -0.37604
H         22.11973         0.26179        -0.24930
H         20.83517        20.32932        -0.67010
H         24.57084         0.23038        -0.21372
H         23.35275        20.31895        -0.73973
H         27.01589         0.22262        -0.12396
H         25.79666        20.25897         0.06399
H         29.46475         0.20955         0.11670
H         28.28579        20.33384        -0.50502
H         31.95957         0.22110         0.47164
H         30.83372        20.33583        -0.54617
H         34.42728         0.22840         0.71828
H         33.20670        20.28251        -0.85093
H         36.94258         0.27734         0.96412
H         35.67088        20.28315        -0.69225
H         39.42110         0.31560         1.18454
H         38.06938        20.29571        -0.48916
H         41.51549         1.59352         1.51130
H         42.71666         3.76062         1.70364
H         42.71490         6.21818         1.63869
H         42.63195         8.20165         1.68962
H         42.69122        10.55093         1.12704
H         42.77227        12.39693         0.50572
H         42.77482        14.79264         0.22619
H         42.76694        16.71939         0.01049
H         40.47089        20.36411        -0.08539
H         42.64850        19.17787         0.15649
