         661
 CSIRO Nanostructure Databank - Neutral Graphene Oxide Data Set
C          6.19332        31.86092        -1.10781
C          6.15155        33.21695        -1.02059
C          8.63801        27.63165        -0.54308
C          8.55001        29.01464        -0.26240
C          7.40784        29.75463        -0.74625
C          8.36858        31.84541         0.09987
C          7.31490        31.11930        -0.58074
C          8.35665        33.21504         0.13092
C          7.24565        33.95683        -0.43620
C          8.37912        36.08905         0.02912
C          7.22374        35.33641        -0.39783
C          8.36189        37.47921         0.03999
C         10.97926        23.33669        -0.44989
C         10.95319        24.70762        -0.11534
C          9.81600        25.47003        -0.41133
C         10.76561        27.46691         0.64873
C          9.75338        26.86629        -0.11105
C         10.70316        28.89834         1.06342
C          9.53731        29.64906         0.50071
C         10.78991        31.80738         0.80055
C          9.43754        31.09863         0.86549
C         10.78626        33.20830         0.79948
C          9.45724        33.94566         0.87938
C         10.83541        36.02839         0.30651
C          9.55815        35.37139         0.42150
C         10.83561        37.58231         0.29685
C          9.49517        38.22289         0.68552
C         10.77314        40.39651         0.96011
C          9.64295        39.65522         0.30339
C         10.84312        41.84700         0.57217
C         13.30708        18.94644        -0.51983
C         13.42585        20.43952        -0.60232
C         12.14638        21.20778        -0.55378
C         13.39942        23.26694         0.12041
C         12.15654        22.56736        -0.31136
C         13.30229        24.63924         0.67490
C         12.09907        25.32114         0.52909
C         13.23176        27.47874         1.14485
C         11.93367        26.67943         1.15322
C         13.24518        28.83475         1.12419
C         12.03957        29.60020         0.58747
C         13.20721        31.78692         1.13335
C         12.00713        31.08421         0.88896
C         13.21102        33.19534         1.12790
C         12.01688        33.91925         0.87793
C         13.29743        36.05650         0.78902
C         12.07922        35.34802         0.68697
C         13.35512        37.50517         0.46308
C         12.10216        38.30493         0.54389
C         13.33586        40.42235         0.82854
C         12.11131        39.66546         0.69038
C         13.26972        41.78841         0.91765
C         12.03060        42.51336         0.65861
C         13.33335        44.56872         0.10111
C         12.14385        43.92387         0.34867
C         13.24057        45.96808        -0.25723
C         15.82699        14.76362        -1.33037
C         15.79847        16.15467        -0.98656
C         14.57519        16.84236        -0.84304
C         15.74691        19.04146        -0.53050
C         14.48795        18.24106        -0.57792
C         15.77371        20.30826         0.23082
C         14.42569        20.93779         0.49626
C         15.54795        22.99585         1.53280
C         14.58967        22.44789         0.46935
C         15.68739        24.52230         1.41606
C         14.47328        25.24092         1.25422
C         15.64408        27.38746         2.05753
C         14.40497        26.68281         1.60764
C         15.70184        28.87444         1.89414
C         14.35944        29.59812         1.83351
C         15.73986        31.75291         1.61648
C         14.47728        31.02547         1.33238
C         15.70131        33.23505         1.79068
C         14.42576        33.96759         1.48362
C         15.74491        36.09184         1.31383
C         14.49977        35.40131         1.14257
C         15.82665        37.50450         1.15920
C         14.66864        38.23622         0.60524
C         15.79705        40.39260         1.37191
C         14.68812        39.76920         0.55826
C         15.70159        41.85971         1.61273
C         14.44143        42.66346         1.27008
C         15.91815        44.55370         0.48958
C         14.65366        43.74844         0.17646
C         16.14027        45.72389        -0.23855
C         14.23963        46.65726        -0.90286
C         15.70716        48.61873        -1.11824
C         14.42842        48.04678        -1.16926
C         15.86196        49.91827        -1.74321
C         18.35492        10.85174        -2.92786
C         18.29615        12.18554        -2.48879
C         17.10418        12.78318        -2.03134
C         18.21137        14.64973        -0.75466
C         17.02280        14.03790        -1.34312
C         18.25375        16.10162        -0.63793
C         17.05009        16.83957        -0.80925
C         18.28930        19.04051        -0.32074
C         17.05104        18.30425        -0.72109
C         18.19188        20.27381         0.45976
C         16.94001        20.90551         0.70669
C         18.14647        23.06087         1.36766
C         16.91395        22.18052         1.59734
C         18.16433        24.44986         1.57073
C         16.91802        25.17127         1.68466
C         18.18151        27.37514         1.99149
C         16.92885        26.56894         2.29885
C         18.13472        28.84217         2.34999
C         16.86710        29.55908         2.04941
C         18.20971        31.75058         1.93204
C         16.89589        31.06194         2.31568
C         18.20839        33.21025         1.77689
C         16.98588        33.96054         1.75422
C         18.15175        36.12110         1.99163
C         16.93871        35.36254         1.68356
C         18.20296        37.57243         1.79959
C         17.00895        38.24236         1.48793
C         18.15866        40.40279         2.20403
C         16.94960        39.69536         1.61341
C         18.24579        41.79455         1.56345
C         16.99806        42.61032         1.66763
C         18.26014        44.70627         1.14040
C         17.04061        44.01425         1.19010
C         18.20539        46.23125         1.08445
C         17.06979        46.74303         0.09921
C         17.76960        49.11019         0.03343
C         16.83597        48.07819        -0.33867
C         18.00676        50.25861        -0.68644
C         17.01580        50.66122        -1.64895
C         18.01481        52.97343        -1.62306
C         17.38221        51.87783        -2.45667
C         18.01435        54.31853        -1.63909
C         20.78895         6.64999        -3.73267
C         20.79613         8.03274        -3.55949
C         19.61672         8.82220        -3.50868
C         20.82515        10.83271        -2.69912
C         19.60076        10.18281        -3.13212
C         20.81262        12.12128        -2.16413
C         19.60494        12.92525        -2.54950
C         20.66982        14.50787        -0.21072
C         19.32526        13.89786        -0.39359
C         20.66191        15.98639         0.04863
C         19.44239        16.74906        -0.24309
C         20.74906        18.81760         0.42533
C         19.56149        18.20213        -0.20114
C         20.72509        20.16660         0.73295
C         19.43289        20.84422         0.96718
C         20.68494        23.07857         0.98534
C         19.41962        22.33322         1.34911
C         20.67213        24.49326         1.53173
C         19.46718        25.14582         1.70925
C         20.74910        27.33799         2.29578
C         19.47449        26.63902         1.87560
C         20.73471        28.87689         2.43258
C         19.41774        29.63132         2.35659
C         20.63300        31.69852         1.30735
C         19.39261        31.05563         1.91971
C         20.68363        33.20184         1.53822
C         19.44761        33.88975         1.71946
C         20.71806        36.08577         1.75590
C         19.48510        35.32889         1.99658
C         20.72588        37.49966         1.89089
C         19.46889        38.27267         1.97042
C         20.71681        40.47292         2.31068
C         19.46740        39.65327         2.04018
C         20.81918        41.77423         1.45681
C         19.52825        42.50768         1.31118
C         20.70769        44.63836         0.87632
C         19.51150        43.99670         1.17140
C         20.74088        46.06068         0.64865
C         19.58497        46.81474         0.81870
C         20.73225        48.91933         0.15963
C         19.68603        48.24097         0.72941
C         20.63345        50.32695        -0.31189
C         19.30099        51.00314        -0.62400
C         20.53400        52.94512        -1.65416
C         19.27646        52.16538        -1.60376
C         20.54016        54.30160        -1.56295
C         19.26528        55.05631        -1.19112
C         20.55017        57.13658        -1.77805
C         19.33078        56.47632        -1.67506
C         20.60761        58.49996        -2.17850
C         23.16394         3.73701        -3.87633
C         21.97997         4.48665        -3.93401
C         23.25044         6.50617        -3.40176
C         21.99627         5.87709        -3.70763
C         23.31018         7.90507        -3.17235
C         22.10217         8.70474        -3.40452
C         23.30901        10.61017        -2.20025
C         22.11163        10.14246        -2.89667
C         23.23507        11.87426        -1.37334
C         21.95194        12.69536        -1.50040
C         23.15525        14.60805        -0.50904
C         21.92058        13.87705        -0.72967
C         23.16387        15.96253        -0.06954
C         21.94920        16.70523         0.11170
C         23.19571        18.66474         1.05374
C         21.95460        18.04956         0.46448
C         23.18591        20.16427         1.05198
C         21.94867        20.88068         1.05696
C         23.18662        22.92321         1.71747
C         21.92727        22.26284         1.25333
C         23.14779        24.42621         1.61177
C         21.97061        25.15107         1.66740
C         23.18943        27.01973         2.60344
C         22.01028        26.55997         2.08629
C         23.21641        29.19443         2.54513
C         21.95545        29.71459         2.20719
C         23.15154        31.73116         1.54147
C         21.92953        31.02355         1.68715
C         23.15200        33.16767         1.37946
C         21.89706        33.89988         1.49649
C         23.13913        36.07403         1.47863
C         21.91920        35.35819         1.56878
C         23.17177        37.49044         1.53861
C         21.96393        38.18303         1.86843
C         23.26397        40.35515         0.55330
C         21.95901        39.56174         2.45821
C         23.21699        41.74102         0.78336
C         21.95514        42.40985         0.99362
C         23.11908        44.50709         0.11800
C         22.02945        43.93517         1.03585
C         23.16833        46.01974         0.17221
C         22.00117        46.73083         0.33316
C         23.22752        48.80842        -0.42634
C         22.06965        48.24463         0.35486
C         23.17664        50.16400        -0.95335
C         21.83319        50.80424        -1.09834
C         23.02522        52.89749        -1.93659
C         21.76864        52.16196        -1.76741
C         23.04689        54.27029        -1.83787
C         21.80561        55.02473        -1.64073
C         23.08520        57.17101        -1.40723
C         21.80605        56.40282        -1.61805
C         23.07201        58.54186        -2.04722
C         21.84098        59.17477        -2.38511
C         23.08717        61.14847        -3.09809
C         21.87666        60.49396        -2.91439
C         24.38149         4.33716        -3.57946
C         25.67274         6.38507        -3.01203
C         24.45218         5.73422        -3.32508
C         25.72007         7.75578        -2.70744
C         24.50313         8.53074        -2.76510
C         25.73298        10.46157        -1.63038
C         24.48335         9.88809        -2.26847
C         25.81350        11.97436        -1.85481
C         24.47759        12.72375        -1.66400
C         25.42704        14.96665        -1.25685
C         24.36618        14.10139        -1.12185
C         25.60876        16.15308        -0.49297
C         24.38908        16.74276        -0.01019
C         25.65665        18.79424         0.40220
C         24.42543        18.05943         0.43636
C         25.64988        20.15740         0.69193
C         24.42304        20.87467         0.98799
C         25.62141        23.05326         0.67903
C         24.42951        22.26467         1.15704
C         25.66828        24.47660         1.16485
C         24.46786        25.07161         1.78213
C         25.61411        27.39863         1.79316
C         24.52173        26.46583         2.30083
C         25.66776        28.90876         1.97228
C         24.44180        29.68712         2.04857
C         25.64722        31.72641         1.42399
C         24.40968        31.05090         1.64312
C         25.62829        33.13986         1.23117
C         24.36891        33.84103         1.27588
C         25.69147        36.03545         1.32341
C         24.39703        35.30679         1.45770
C         25.66761        37.51192         1.17527
C         24.41867        38.21492         1.24937
C         25.63724        40.38219         1.17049
C         24.41497        39.60418         0.95209
C         25.68785        41.81892         0.84931
C         24.45802        42.49849         0.74372
C         25.66414        44.59282         0.36740
C         24.44993        43.87753         0.44877
C         25.65114        46.00751         0.01795
C         24.43700        46.69680        -0.06733
C         25.68010        48.85210        -0.72595
C         24.40592        48.09542        -0.43373
C         25.49028        49.84501        -1.88052
C         24.26228        50.70969        -1.60632
C         25.53603        52.82830        -2.38018
C         24.22792        52.07527        -2.17615
C         25.51850        54.30135        -2.22224
C         24.30634        54.99629        -1.97089
C         25.54495        57.09374        -1.88368
C         24.32855        56.39821        -1.80150
C         25.54966        58.58888        -1.68210
C         24.28220        59.22977        -2.19840
C         24.29166        60.52866        -2.73470
C         26.95265         8.39378        -2.36624
C         28.23520        10.35075        -1.61440
C         27.02129         9.73202        -1.95485
C         28.31113        11.75065        -1.30912
C         27.15676        12.55335        -1.59393
C         28.35033        14.57832        -0.84792
C         27.34202        13.94375        -1.57223
C         28.13598        15.87004        -0.06748
C         26.87505        16.71003        -0.25479
C         28.14181        18.75969         0.15766
C         26.91446        18.08460         0.15289
C         28.11871        20.27138         0.12821
C         26.96858        20.83200         0.95244
C         28.12307        23.00801         0.89481
C         26.93868        22.33728         0.84233
C         28.11539        24.45378         1.20889
C         26.82908        25.18675         1.14943
C         28.10167        27.43498         0.90819
C         26.80518        26.67929         1.21104
C         28.16622        28.78633         1.67228
C         26.85608        29.56647         1.66150
C         28.10163        31.69550         1.21747
C         26.87907        30.99847         1.45721
C         28.06752        33.10434         1.02942
C         26.86048        33.82183         1.05669
C         28.15305        36.01950         0.92659
C         26.85182        35.29085         0.68623
C         28.14562        37.43478         0.88041
C         26.88608        38.15428         0.94300
C         28.12139        40.34159         0.58284
C         26.94640        39.60607         1.10166
C         28.17985        41.80722         0.70183
C         26.91449        42.52851         0.76860
C         28.14937        44.76120         0.78117
C         26.89774        43.92675         0.58106
C         28.14543        45.99969        -0.10070
C         26.91494        46.66403        -0.30114
C         28.10760        48.61288        -1.19893
C         26.90935        47.98194        -0.84109
C         28.10530        49.96194        -1.81267
C         26.79147        50.64053        -2.12335
C         28.01927        52.80736        -2.16274
C         26.81041        52.11616        -2.17252
C         28.05181        54.28885        -2.48432
C         26.74006        55.00228        -2.24447
C         26.74081        56.39508        -2.09708
C         29.51079        12.40750        -0.95035
C         30.70869        14.48578        -0.22793
C         29.54787        13.80691        -0.62938
C         30.67730        15.90432         0.27697
C         29.41048        16.67096        -0.04037
C         30.63271        18.86045        -0.22778
C         29.38055        18.04224         0.01152
C         30.66414        20.12421         0.64315
C         29.40939        20.95562         0.53495
C         30.67386        23.02969         1.02199
C         29.40596        22.28906         0.84403
C         30.67215        24.45764         1.11013
C         29.41737        25.20018         1.30818
C         30.59070        27.32120         0.93644
C         29.38831        26.65663         1.14607
C         30.52650        28.78879         0.69003
C         29.34837        29.56164         1.13153
C         30.60402        31.63910         0.80176
C         29.34832        30.94016         1.04857
C         30.60164        33.11580         0.70659
C         29.32598        33.86066         0.79031
C         30.59089        36.02948         1.16017
C         29.36465        35.32997         1.03113
C         30.61546        37.44661         1.03321
C         29.38256        38.12459         0.84960
C         30.65760        40.30471         0.56430
C         29.40863        39.55092         0.50564
C         30.63254        41.70005         0.43824
C         29.38734        42.44803         0.51710
C         30.57397        44.53123        -0.14552
C         29.51088        43.93983         0.78251
C         30.60986        45.97419        -0.39462
C         29.36640        46.65821        -0.44483
C         30.59154        48.69877        -1.17465
C         29.34941        47.98738        -0.96405
C         30.54558        50.10220        -1.43333
C         29.33732        50.77176        -1.68052
C         29.25589        52.15217        -1.93607
C         31.92012        16.68519        -0.05079
C         33.14079        18.78573         0.09602
C         31.93367        18.08407        -0.07155
C         33.19121        20.18539         0.66279
C         31.91649        20.96003         0.32257
C         33.19309        23.02532         1.21457
C         31.88283        22.33888         0.93427
C         33.12409        24.50228         0.93543
C         31.89913        25.19034         0.95771
C         33.06160        27.35711         0.46215
C         31.82846        26.62948         0.82973
C         33.12170        28.82532         0.59072
C         31.83385        29.54133         0.50150
C         33.12739        31.68324         0.43554
C         31.80607        30.99221         0.68796
C         33.13104        33.14280         0.81057
C         31.86260        33.80525         1.11092
C         33.16594        36.00308         1.35253
C         31.84829        35.27852         1.38091
C         33.14239        37.52090         1.21806
C         31.85350        38.19672         0.99966
C         33.12634        40.30998         0.67953
C         31.87990        39.58368         0.74090
C         33.09886        41.72509         0.47493
C         31.89004        42.39121         0.32735
C         33.13276        44.50950        -0.38487
C         31.86321        43.76878        -0.21108
C         33.05857        45.88756        -0.73281
C         31.83724        46.61528        -0.74211
C         31.80557        48.00759        -1.04951
C         34.38372        21.02634         0.27254
C         35.58149        23.15963         0.32208
C         34.39467        22.36123         0.54932
C         35.64132        24.50950         0.57793
C         34.42153        25.23858         1.10589
C         35.61582        27.40828         0.69085
C         34.37486        26.62882         0.52484
C         35.57296        28.77685         0.82582
C         34.31112        29.48411         0.80445
C         35.59879        31.68289         0.84236
C         34.29369        30.96129         1.14562
C         35.55532        33.09772         0.65430
C         34.33785        33.84407         0.76964
C         35.53461        36.02779         0.61366
C         34.37879        35.29561         0.90024
C         35.56794        37.46267         0.63041
C         34.38259        38.20382         0.80261
C         35.59757        40.32040         0.34549
C         34.36024        39.61110         0.64105
C         35.59773        41.69348         0.21090
C         34.38656        42.51558         0.55284
C         34.32730        43.85404        -0.14279
C         36.84419        25.28621         0.44888
C         38.07624        27.44549         0.50502
C         36.86595        26.66967         0.61004
C         38.09034        28.81358         0.68432
C         36.84081        29.51557         1.18666
C         38.08672        31.69674         0.82060
C         36.79538        30.98313         0.83252
C         38.08362        33.18225         0.57764
C         36.77554        33.81848         0.28885
C         38.06187        36.03823         0.18009
C         36.76059        35.32487         0.18287
C         38.04186        37.41552         0.21587
C         36.81008        38.16290         0.34301
C         36.80234        39.54314         0.20806
C         39.28678        29.57419         0.45143
C         40.50380        31.72538         0.20210
C         39.32662        30.95473         0.51342
C         40.50373        33.09065         0.03923
C         39.31224        33.89060         0.15330
C         39.27172        35.26606         0.01171
O         16.25969        42.32850         2.89341
O         22.32227         9.82385        -4.31932
O         14.63377        26.97741         3.06710
O         26.41382        40.05643         2.37397
O         27.58001        50.00967        -3.18985
O         14.86016        22.81816         2.75423
O         36.64460        34.47566        -1.01912
O         15.47268        31.25099         0.26708
O         18.76279        41.81909         0.20059
O         29.97075        33.58553        -0.53754
O         25.28449        35.60727         2.64511
O         26.39154        14.72403        -2.22485
O         23.25162        28.12865         3.43915
O         28.58443        39.83444        -0.70371
O         24.79056        52.25781        -3.52224
O         18.54406        48.92001         1.17705
O         15.33388        45.88884        -1.37145
O         18.67053        29.34768         3.60781
O         22.80747        39.89678         3.27550
O         20.69010        15.00031         1.19057
O         19.72860        14.04169        -3.03743
O         25.05735        12.51181        -2.97733
O         20.00158        51.28615         0.61424
O         33.31491        36.85502         2.52851
O         10.87857        36.88719        -0.94277
O         18.80544        35.69939         3.23397
O         21.57483        50.93509        -2.54354
O         14.83933        33.67527         2.88616
O         33.71128        26.77963        -0.75298
O         18.77974        51.57675        -2.91632
O         24.85864        25.39216         3.22068
O         20.71986        27.99560         3.59007
O         30.07440        43.97699         2.07542
O         19.25249        18.97158        -1.42568
O         14.57095        23.10719        -0.81652
O         31.00862        29.13183        -0.64818
O         30.92321        43.79571        -1.36176
O         14.21624        37.72755        -0.71237
O         28.70982        24.70909         2.53914
O         19.47214        21.32158         2.37307
O         16.41459        19.02845        -1.83304
O         25.72453        27.17271         0.32742
O         38.18494        32.66754         1.94181
O         31.77324        34.31999         2.50241
O         18.79481        27.22201         0.67896
O         23.19939        18.26412         2.48215
H         23.01791        17.29994         2.51673
O         20.60067        23.22711        -0.47522
H         21.38961        23.72407        -0.77924
O         23.18153        57.39034         0.04258
H         24.03830        57.86183         0.20113
O         19.23895        55.12140         0.27261
H         20.05295        55.58499         0.56412
O         30.49716        19.27785        -1.62201
H         30.71600        18.50926        -2.18986
O         22.40390        48.58362         1.76353
H         23.14692        48.00296         2.03631
O         14.02870        20.72446        -1.89532
H         14.29572        21.67753        -1.89896
O         25.42999        23.16389        -0.78674
H         25.69600        22.30604        -1.18531
O         25.93713        49.69213         0.44742
H         26.03105        49.10514         1.22761
O         25.19146        49.08713        -3.06382
H         25.19924        49.70288        -3.82732
O         27.90453        20.63079        -1.27034
H         28.66712        20.25350        -1.77150
O          9.36927        38.05511         2.13930
H          8.43149        38.20621         2.38174
O         34.61724        25.41223         2.54553
H         34.50414        24.51536         2.94657
O         30.69810        19.64637         2.00163
H         30.92504        20.39247         2.59454
O         10.66338        40.37269         2.40743
H         10.32108        39.47751         2.65744
O         23.23597        11.51041         0.03725
H         24.07709        11.01445         0.22265
O         28.01518        45.31875         2.11304
H         28.79834        44.92524         2.61158
O         33.44539        22.89705         2.68098
H         32.60882        23.13089         3.13862
O         36.91521        29.49471         2.65058
H         36.09085        29.91307         2.98841
O         22.76360        44.12873        -1.24080
H         23.41595        44.53191        -1.85109
O         17.03482        21.70820         2.94703
H         16.20797        22.04782         3.40502
O         22.48041        44.23939         2.38778
H         21.81619        43.89486         3.02138
O         25.61468        10.30464        -0.16658
H         25.74318         9.35430         0.04038
O         29.11119        54.94193        -1.77653
H         28.90053        54.92458        -0.82066
O         17.78094        46.64003         2.41303
H         17.86588        47.62189         2.44983
O          9.07982        33.95763         2.29256
H          8.98117        33.00780         2.56374
O         17.02492        26.34297         3.72645
H         16.13524        26.05727         4.03703
O         34.09801        31.03078         2.58320
H         34.04110        31.97736         2.83884
O         19.21204        12.59092        -0.05166
H         20.07068        12.25409         0.27863
O         10.69282        29.00820         2.51598
H         11.04608        28.15631         2.88371
O         11.68848        26.46965         2.60087
H         12.49118        26.05193         2.98698
O         17.93637        40.52102         3.62494
H         18.78587        40.80269         4.04043
O         27.94763        15.36111         1.32952
H         27.67717        16.13030         1.87842
O         12.04325        29.45864        -0.85401
H         12.82140        29.93653        -1.21098
O         31.99778        21.22520        -1.09988
H         31.14734        21.61630        -1.39149
O         14.03349        43.39855         2.44797
H         14.72764        43.25713         3.13698
O         23.26063        22.67607         3.18458
H         23.01992        21.73594         3.33568
O         34.54752        42.87316         1.98391
H         33.68393        43.21707         2.30140
O         28.10156        27.72566        -0.50492
H         27.16165        27.82252        -0.78474
O          9.03790        31.16702         2.28367
H          9.58946        30.49628         2.76121
O         20.57734        41.05356         3.65032
H         21.47340        40.96740         4.06759
O         13.93083        20.57917         1.78833
H         14.20468        21.31541         2.42605
O         25.61980        58.83302        -0.25421
H         25.52159        59.79691        -0.10792
O         20.50096        31.50289        -0.14276
H         19.68263        31.95888        -0.43318
O         26.59334        35.35130        -0.75109
H         27.36017        34.95020        -1.21366
O         13.88501        29.70338         3.19998
H         13.96701        28.80634         3.60212
O         15.01876        40.14228        -0.80827
H         14.61366        39.45904        -1.39273
O         27.28538        20.52940         2.34538
H         26.57887        20.91023         2.90880
O         22.21582        39.72959        -0.05554
H         21.54682        40.39699        -0.32240
O         16.69299        31.22989         3.73106
H         17.39331        30.70561         4.18816
O         30.66824        15.75531         1.75269
H         29.77543        15.39562         1.97874
O         33.24293        20.03509         2.11361
H         34.11322        19.65159         2.34873
O         33.40166        31.56135        -0.98541
H         32.59591        31.81750        -1.48155
O         14.84494        43.10581        -1.09349
H         15.01819        43.81130        -1.75548
O         28.44141        28.44053         3.05679
H         28.44063        29.26175         3.59172
H          5.37396        31.30245        -1.58315
H          5.29561        33.77915        -1.42140
H          7.83470        27.14140        -1.11076
H          6.61964        29.20906        -1.28499
H          6.34875        35.88421        -0.77733
H          7.41291        38.00621        -0.13953
H         10.06948        22.86241        -0.84574
H          8.96741        24.99713        -0.92514
H          9.48285        39.87587        -0.76661
H          9.91615        42.38056         0.31525
H         12.32782        18.44493        -0.51299
H         11.20585        20.72274        -0.85753
H         11.20352        44.48256         0.21247
H         12.32535        46.50505         0.03538
H         14.90408        14.29479        -1.70434
H         13.63814        16.28080        -0.97783
H         13.57730        48.67875        -1.46738
H         15.03958        50.26688        -2.38571
H         17.42423        10.27076        -3.02617
H         16.15730        12.25540        -2.23575
H         16.68309        52.13768        -3.28283
H         17.13181        54.89943        -1.94980
H         19.83197         6.12742        -3.88290
H         18.65283         8.32789        -3.70519
H         18.39606        57.03931        -1.82187
H         19.66725        59.03214        -2.38628
H         23.12423         2.65503        -4.06575
H         21.02751         3.98793        -4.16372
H         23.10431        62.16428        -3.51667
H         20.93289        60.99009        -3.18235
H         25.29957         3.73413        -3.53392
H         26.60100         5.79529        -2.97985
H         26.45247        59.04907        -2.17220
H         25.24665        61.05897        -2.86388
H         27.88400         7.81285        -2.44729
H         29.16754         9.76892        -1.66920
H         28.30472        54.38462        -3.57784
H         27.69644        56.93775        -2.13746
H         30.43033        11.81589        -0.83418
H         31.64883        13.92617        -0.10747
H         31.48813        50.67034        -1.44382
H         30.17242        52.76042        -1.93337
H         32.88202        16.15422         0.03797
H         34.06940        18.19151         0.15913
H         33.99370        46.43063        -0.93683
H         32.75198        48.53804        -1.22939
H         35.27127        20.54777        -0.17180
H         36.47922        22.63945        -0.05041
H         36.53711        42.21927        -0.01862
H         35.27178        44.41420        -0.23226
H         37.78723        24.75747         0.23776
H         39.00729        26.92733         0.22550
H         38.98368        37.97844         0.12871
H         37.74553        40.07176         0.00331
H         40.19724        29.02412         0.16442
H         41.44619        31.17488         0.06020
H         41.44566        33.59955        -0.21421
H         40.20459        35.81180        -0.19921
