         261
 CSIRO Nanostructure Databank - Neutral Graphene Oxide Data Set
C        -10.54557         1.14239         1.56224
C        -10.14264         1.60775         0.17925
C         -8.91382         0.85105        -0.35094
C         -7.73590         1.55717        -0.94546
C         -6.42188         0.81490        -1.08742
C         -5.16869         1.48505        -0.60009
C         -3.92828         0.65783        -0.35389
C         -2.65156         1.44212        -0.27752
C         -1.33497         0.73588        -0.40208
C         -0.19919         1.29807         0.40770
C          1.04728         0.51243         0.65302
C          2.32120         1.20477         1.11870
C          3.63446         0.48577         0.91717
C          4.86798         1.32467         0.66837
C          6.19643         0.64029         0.45353
C          7.45793         1.33723         0.89197
C          8.49486         0.43604         1.41219
C         10.32505         1.51491         0.96379
C         11.28378         0.59273         0.32579
C         -9.96445         3.11012         0.11568
C         -8.93717         3.75856        -0.45167
C         -7.65933         3.10360        -0.97092
C         -6.52494         3.62665        -0.04926
C         -5.26675         2.83446         0.09025
C         -3.99161         3.53139         0.51354
C         -2.70271         2.78554         0.40866
C         -1.42229         3.54546         0.17156
C         -0.20723         2.79302         0.63880
C          1.02639         3.50398         1.09856
C          2.30380         2.72723         1.34507
C          3.59911         3.47362         1.49720
C          4.87875         2.76132         1.09758
C          6.17165         3.45791         1.47824
C          7.50233         2.76431         1.36502
C          8.80365         3.59877         1.00618
C          9.95291         2.72638         0.46726
C         -8.95354         5.26246        -0.64837
C         -7.55233         5.83758        -0.75319
C         -6.48013         5.13840         0.02890
C         -5.19445         5.84760         0.32964
C         -3.92521         5.05914         0.61368
C         -2.60430         5.79346         0.46453
C         -1.35986         5.02884         0.08835
C          0.05628         5.67167         0.09358
C          1.07385         5.02210         1.03784
C          2.37787         5.75014         1.16742
C          3.63141         4.93209         1.06662
C          4.95728         5.62706         0.84860
C          6.09227         4.96377         1.57424
C          7.91272         5.80563         0.00586
C          8.40548         4.58515        -0.12259
C         -7.32456         7.01254        -1.37832
C         -5.99601         7.67161        -1.35732
C         -4.97502         7.15713        -0.39602
C         -3.83760         8.05462         0.01259
C         -2.57129         7.30741         0.29362
C         -1.26297         7.97785        -0.00162
C          0.01203         7.20580         0.06140
C          1.24126         7.99091         0.42964
C          2.45748         7.25361         0.92231
C          3.80223         7.93703         0.80505
C          5.00321         7.09112         0.45854
C          6.27119         7.75327        -0.02339
C          7.62150         7.10068         0.00575
C         -5.84038         9.06616        -1.85086
C         -4.80299         9.84892        -1.51978
C         -3.82380         9.52787        -0.41203
C         -2.43508        10.06250        -0.62757
C         -1.23734         9.50751         0.11023
C          0.07018        10.11748        -0.47522
C          1.34922         9.39379        -0.05927
C          2.54479        10.03109        -0.02141
C          3.81920         9.37932         0.37993
C          5.11102         9.95658        -0.08486
C          6.24981         9.24160        -0.13577
C        -10.39768        -0.12959         1.96219
C         -9.69384        -1.13264         1.13019
C         -8.83368        -0.61922         0.00916
C         -7.62259        -1.40179        -0.44552
C         -6.45533        -0.70386        -1.08146
C         -5.11955        -1.43824        -1.34015
C         -3.89203        -0.78673        -0.72930
C         -2.58620        -1.44559        -1.13872
C         -1.29276        -0.71495        -0.86103
C          0.01547        -1.47821        -0.73785
C          1.11738        -0.92687         0.16118
C          2.39891        -1.70223         0.27048
C          3.69336        -0.99480         0.56803
C          4.99493        -1.65207         0.22753
C          6.25220        -0.84687         0.17722
C          7.52722        -1.62880         0.42233
C          8.52087        -0.89818         1.22738
C         10.41782        -1.83622         0.65357
C         11.33196        -0.77259         0.21115
C         -9.48910        -2.50851         1.60661
C         -8.49344        -3.31879         1.08886
C         -7.27988        -2.65260         0.43884
C         -6.34985        -3.61915        -0.37297
C         -5.16946        -2.94143        -0.99520
C         -3.86378        -3.71610        -1.07636
C         -2.58690        -2.94942        -1.39719
C         -1.26480        -3.68410        -1.44017
C          0.03370        -2.93904        -1.13600
C          1.24111        -3.77437        -0.78644
C          2.47394        -3.13575        -0.23795
C          3.79161        -3.74179        -0.66090
C          5.06670        -2.98928        -0.46186
C          6.40128        -3.72771        -0.44499
C          7.56923        -3.13274         0.31517
C          8.91397        -3.82782         0.19073
C         10.14421        -2.99072        -0.01825
C         -8.43960        -4.69391         1.41067
C         -7.31972        -5.51068         1.13364
C         -6.23605        -5.12089         0.12976
C         -4.76366        -5.36384         0.75360
C         -3.71956        -5.01000        -0.31124
C         -2.33199        -5.59476        -0.13270
C         -1.33230        -5.22466        -1.23525
C          0.04108        -5.90721        -1.11236
C          1.32861        -5.18104        -1.30954
C          2.57816        -5.98842        -1.06001
C          3.84896        -5.24735        -0.77689
C          5.15973        -5.90524        -1.11943
C          6.44670        -5.17532        -0.83776
C          7.64885        -5.98620        -0.49672
C          8.97134        -5.22304        -0.45142
C         -7.25293        -6.83072         1.53164
C         -5.98780        -7.59752         1.41634
C         -4.70141        -6.83990         1.20588
C         -3.45059        -7.64439         0.95707
C         -2.21035        -6.95333         0.48696
C         -0.97467        -7.81692         0.29118
C          0.19375        -7.21977        -0.40561
C          1.23613        -8.17202        -0.94448
C          2.53068        -7.48383        -1.37973
C          3.83824        -8.17586        -1.10085
C          5.14633        -7.39849        -1.22897
C          6.46552        -8.17358        -1.10104
C          7.60661        -7.33662        -0.52227
C         -6.01957        -9.03225         1.05858
C         -4.94859        -9.71278         0.59744
C         -3.57512        -9.16479         0.61414
C         -2.48701        -9.74154        -0.14453
C         -1.07568        -9.36101         0.22261
C          0.06294        -9.90601        -0.69470
C          1.40645        -9.45790        -0.18201
C          2.58265       -10.08294         0.01019
C          3.85862        -9.27040        -0.03046
C          5.13969       -10.07072        -0.07060
C          6.30680        -9.52265        -0.43295
O         -1.47933         4.20925        -1.12156
O          0.65109        -5.73571        -2.44497
O          4.40186        -3.01018        -1.76126
O         -6.29715         2.86692         1.15243
O         -6.39151        -5.99426        -0.88879
O          6.75829         5.58516         2.39258
O         -0.00589         3.10020         2.05056
O         -8.78041         1.02401        -1.79844
O         -1.86605        -0.77553        -2.19354
O         -3.17860        -8.64192         1.95032
O          6.77703        -4.12171        -1.80821
O         -0.02392         0.57264         1.65221
O         -5.15782        -7.10945         2.56367
O          1.56108         7.92479         1.85279
O          7.17637        -1.10735        -0.90812
O          9.61032        -1.58214         1.78599
O         -7.49125        -1.37654        -1.87609
O          2.87917         3.08308         2.66026
O          5.14721        -6.55634        -2.42439
O          3.21025        -8.24328        -2.41153
O         -6.23550         5.75224         1.33945
O          1.43164        -1.69282         1.35797
O         -1.93930        -3.28477        -2.65821
O         -4.09062        -5.00066        -1.70632
O          0.33440        -9.01800        -1.86624
O         -1.90323        -5.71850         1.23309
O          4.47295        -1.72466         1.58574
O         -6.27837        -3.52185        -1.77437
O          0.13595        -7.24751         1.04841
O          4.28457         4.91999        -0.23525
O          6.88567         2.93232         2.65384
O         -3.36442         2.87905         1.67555
O          0.45709        -1.89749        -2.06478
O          3.11899        -5.87559         0.30622
O          1.49544         5.52964         2.31389
O         -0.59777         7.56526        -1.23729
O          1.60585        -3.93183         0.61712
O         -5.51714         1.46602        -2.01846
O          3.96049         8.97246         1.80502
O         -4.01682        -0.39478         0.66120
O         -3.34149         7.93600         1.37592
O          8.15843        -3.82571         1.44166
O        -10.10547        -1.24627        -0.30144
O         -3.15167         5.45986         1.77229
O         -6.51066        -2.16332         1.45831
O          4.71891         2.38638        -0.31637
O          5.31166         7.17428        -0.97451
O          7.08153         1.29352        -0.51593
O         -4.86085         6.84027        -1.83233
O         -7.39512         3.58598        -2.24115
O         -1.83539         1.57425        -1.47754
O          3.01872         0.59246         2.23230
O          9.59041         1.02590         2.07505
O         -0.79858        -9.92891         1.52293
H         -1.42492        -9.52011         2.16568
O         -9.63061         5.90809         0.43640
H         -9.07549         5.82821         1.24004
O          0.68560         5.31468        -1.16219
H          0.10364         5.61908        -1.89454
O          9.41638        -5.08222        -1.80706
H          8.67326        -4.68779        -2.31959
O        -11.24539         1.28747        -0.69782
H        -10.88138         1.23867        -1.60990
O         -1.87856        -5.82788        -2.41902
H         -2.08480        -5.11081        -3.06617
O         -1.32995         9.88618         1.50090
H         -1.99177         9.30117         1.93862
O         -4.30845        10.30849         0.73161
H         -3.89133         9.93581         1.54116
O         -4.52592        -4.52288         1.85962
H         -4.84729        -4.96406         2.67664
O          9.24281         4.28011         2.16305
H          8.46845         4.73275         2.57621
O          6.91787        -8.48273        -2.44376
H          6.61911        -7.74396        -3.02324
O         -4.89521        -1.37836        -2.75510
H         -5.68830        -1.75237        -3.19888
O         -0.03536        10.14942        -1.90126
H         -0.12228         9.22059        -2.21575
O          3.92458        -8.48433         1.20213
H          3.69709        -9.06673         1.95650
H         12.13319        -1.14554        -0.45020
H         12.05707         1.12251        -0.25731
H         10.49598         3.12268        -0.40436
H          8.50036         4.18499        -1.15026
H          8.47320         7.80667        -0.01243
H          7.19683         9.74113        -0.39098
H          5.13530        11.03998        -0.27847
H          2.60339        11.08040        -0.35157
H          0.13331        11.17868        -0.13006
H         -2.36234        11.09527        -1.00623
H         -4.71751        10.85388        -1.95938
H         -6.56840         9.41457        -2.59941
H         -8.14366         7.52458        -1.90525
H         -9.52413         5.50253        -1.58142
H        -10.82915         3.70521         0.45437
H        -11.05648         1.86455         2.21616
H        -10.74274        -0.44963         2.95662
H        -10.22760        -2.92786         2.30929
H         -9.33056        -5.16479         1.85906
H         -8.04268        -7.26132         2.17113
H         -7.00992        -9.51029         1.02608
H         -5.07577       -10.74044         0.22666
H         -2.70037       -10.48920        -0.92244
H         -0.08208       -10.96998        -0.98826
H          2.62752       -11.14753         0.28733
H          5.12197       -11.09112         0.34484
H          7.22723       -10.12436        -0.37478
H          8.54290        -7.89041        -0.34419
H          9.73874        -5.83317         0.08791
H         10.72753        -3.26094        -0.91173
