         638
 CSIRO Nanostructure Databank - Neutral Graphene Oxide Data Set
C         24.59576        69.04444         5.31590
C         24.82589        70.31444         5.95238
C         23.84320        70.96017         6.68254
C         25.32366        72.79865         7.29151
C         24.08327        72.25209         7.26392
C         26.16483        65.27233         2.59913
C         26.44676        66.53390         3.26046
C         25.39096        67.20242         3.87832
C         26.63561        69.37798         3.93288
C         25.51602        68.50887         4.43885
C         27.04466        70.47402         4.90386
C         26.14167        70.93455         5.82436
C         27.63645        72.89298         6.30480
C         26.51833        72.02308         6.80448
C         28.32185        61.25891         0.58111
C         28.42177        62.52062         1.20010
C         27.21279        63.17166         1.55095
C         29.09045        65.19230         2.52793
C         27.11371        64.26957         2.44551
C         28.94878        66.60064         2.58881
C         27.75046        67.23451         3.15439
C         28.97389        69.41718         3.06325
C         27.81726        68.57924         3.45040
C         29.23399        70.67885         3.78812
C         28.31313        71.16306         4.68073
C         29.76067        73.14598         5.11141
C         28.55341        72.43748         5.37502
C         30.39403        57.08735        -1.01816
C         30.41102        58.47310        -0.86086
C         29.32936        59.17893        -0.28357
C         30.71497        61.21787        -0.02543
C         29.43349        60.52733         0.10189
C         30.87168        62.50481         0.51819
C         29.85060        63.02266         1.52123
C         31.04712        65.29566         1.16348
C         29.97694        64.52901         1.69459
C         31.11893        66.68548         1.45667
C         30.02904        67.34250         2.08419
C         31.44088        69.41768         2.32861
C         30.08885        68.80341         2.27721
C         31.63836        70.60831         3.00038
C         30.44630        71.48291         3.34906
C         32.06262        73.14178         4.33379
C         30.78841        72.61043         4.29563
C         32.56148        52.75463        -1.64308
C         32.73858        54.15277        -1.49755
C         31.54019        54.95774        -1.41570
C         32.70390        57.07065        -2.06618
C         31.52013        56.33781        -1.46987
C         32.83728        58.45479        -1.47559
C         31.57994        59.27071        -1.41096
C         32.98601        61.28728        -0.92627
C         31.77902        60.60077        -0.72623
C         33.07598        62.67144        -0.59482
C         32.01945        63.26478         0.15614
C         33.21611        65.42405         0.00985
C         32.11098        64.66240         0.45329
C         33.25957        66.82283         0.27245
C         32.26749        67.43798         1.03562
C         33.71837        69.40123         1.39069
C         32.48445        68.76539         1.58005
C         34.09594        70.47594         2.32523
C         33.01696        71.07783         3.21489
C         34.27988        73.26032         3.13057
C         33.30817        72.40750         3.91486
C         35.20580        48.52223        -1.64720
C         35.19496        49.91534        -1.55904
C         33.92367        50.57718        -1.85546
C         35.41264        52.85732        -1.08867
C         33.58590        51.81489        -1.33996
C         35.29145        54.22244        -1.44343
C         34.00475        54.84739        -1.50268
C         35.28924        56.99123        -2.10704
C         33.99517        56.24704        -2.00315
C         35.21008        58.50240        -2.24306
C         34.17949        59.09427        -1.28065
C         35.30594        61.28829        -1.76518
C         34.16261        60.60386        -1.40898
C         35.27352        62.79763        -1.88503
C         34.22100        63.42832        -0.99308
C         35.49327        65.55998        -1.01383
C         34.30422        64.78015        -0.67367
C         35.51001        66.92357        -0.84685
C         34.29754        67.68338        -0.39018
C         35.84390        69.59118         0.19399
C         34.67234        68.89302         0.45257
C         35.90749        71.02538         0.66349
C         35.40504        71.22417         2.10695
C         36.33922        73.53770         1.83638
C         35.28885        72.72968         2.35607
C         37.74847        44.14966        -1.58742
C         37.63287        45.57044        -1.42143
C         36.46920        46.27738        -1.61782
C         37.66251        48.46091        -1.68724
C         36.40017        47.72791        -1.19822
C         37.72978        49.90142        -1.16153
C         36.43121        50.64062        -1.33450
C         37.74676        52.74395        -1.74372
C         36.54013        52.05926        -1.38925
C         37.74479        54.16889        -1.85507
C         36.53682        54.88958        -1.71225
C         37.80245        57.07443        -1.98001
C         36.54576        56.38043        -1.52046
C         37.78180        58.45300        -2.16661
C         36.54515        59.20060        -2.10561
C         37.73611        61.34625        -2.56053
C         36.52938        60.58081        -2.07225
C         37.81924        62.77316        -2.07303
C         36.63353        63.46136        -1.72924
C         37.90341        65.56779        -1.64597
C         36.67847        64.83876        -1.45512
C         37.89178        66.96711        -1.60048
C         36.63185        67.76006        -1.40005
C         38.07106        69.75993        -0.81854
C         36.88512        69.05722        -0.63520
C         38.27868        71.06870        -0.21846
C         37.25879        71.66869         0.51024
C         38.56826        73.72055         0.76745
C         37.39478        72.99506         1.05282
C         40.21846        39.92060        -0.75245
C         40.16486        41.33300        -0.82607
C         38.97859        42.03806        -1.22801
C         40.26172        44.18252        -1.41895
C         38.94316        43.43411        -1.38118
C         40.11072        45.60980        -1.00451
C         38.81349        46.30488        -0.81487
C         40.11294        48.39847        -1.53596
C         38.94402        47.74535        -1.33553
C         40.15330        49.80586        -2.09895
C         38.92597        50.61658        -1.74991
C         40.19080        52.64177        -2.48211
C         38.94039        51.96944        -1.95485
C         40.20221        54.14046        -2.25666
C         38.99705        54.85777        -2.11894
C         40.22354        56.98547        -2.33223
C         39.03239        56.31648        -2.12330
C         40.33170        58.46600        -2.10712
C         39.01890        59.20032        -2.29125
C         40.28143        61.29067        -2.46844
C         39.02075        60.56926        -2.40135
C         40.29102        62.71802        -2.43673
C         39.05519        63.45354        -2.17576
C         40.30577        65.59920        -2.31547
C         39.10244        64.86226        -2.01534
C         40.30843        66.97723        -2.28588
C         39.07541        67.71071        -1.99378
C         40.49762        69.83084        -1.64132
C         39.15916        69.19297        -1.63966
C         40.58938        71.19543        -1.14850
C         39.51211        71.78512        -0.45393
C         40.81249        73.86721        -0.23155
C         39.62883        73.13805         0.03145
C         42.54886        35.65230         0.32718
C         42.57933        37.15899         0.20350
C         41.44442        37.81753        -0.24501
C         42.52939        39.98996         0.10231
C         41.38011        39.24317        -0.31605
C         42.48818        41.41302         0.05392
C         41.31800        42.07524        -0.42445
C         42.44630        44.22188        -0.19055
C         41.35479        43.50501        -0.59508
C         42.56507        45.61783        -0.63779
C         41.29251        46.41536        -0.64137
C         42.61641        48.49464        -1.07642
C         41.43440        47.67106        -1.55103
C         42.59947        49.91085        -1.29628
C         41.42632        50.57718        -1.75928
C         42.64993        52.70474        -1.79967
C         41.44522        51.95830        -1.96840
C         42.67807        54.14858        -2.07888
C         41.45034        54.81549        -2.31019
C         42.74834        57.00324        -2.54959
C         41.45904        56.24621        -2.77187
C         42.76925        58.38799        -2.75537
C         41.43915        59.10037        -2.95345
C         42.70469        61.27102        -2.75326
C         41.48109        60.58388        -2.64796
C         42.72456        62.70138        -2.74276
C         41.50035        63.40306        -2.61927
C         42.81302        65.56334        -2.72523
C         41.48102        64.87052        -2.93926
C         42.80512        67.03370        -2.84406
C         41.50278        67.77652        -2.64161
C         42.81044        69.95337        -2.62677
C         41.57004        69.19311        -2.21599
C         42.91920        71.30961        -1.97841
C         41.79866        71.92266        -1.36132
C         43.07807        74.02465        -1.21280
C         41.89176        73.28434        -0.91285
C         45.25645        32.99385         0.68381
C         44.03014        33.63680         0.41041
C         45.02327        35.79427         0.93806
C         43.90274        35.01678         0.54107
C         44.94044        37.22602         1.01408
C         43.73335        37.89385         0.61363
C         44.81546        40.07720         1.04418
C         43.69542        39.32110         0.58119
C         44.74003        41.49681         1.01739
C         43.61528        42.15384         0.51846
C         44.83259        44.38598         0.64120
C         43.50570        43.64749         0.69836
C         44.91791        45.75039         0.27913
C         43.80514        46.39550        -0.43871
C         44.91123        48.61731        -0.19639
C         43.73855        47.87251        -0.53846
C         44.95649        49.99505        -0.52465
C         43.79100        50.66022        -1.06475
C         45.05007        52.86402        -1.07310
C         43.80795        52.04842        -1.36039
C         45.18614        54.09748        -1.98449
C         43.89403        54.87722        -2.05250
C         45.19931        57.00664        -2.25509
C         43.95053        56.28570        -2.29794
C         45.24188        58.39024        -2.62527
C         44.00037        59.09653        -2.87126
C         44.99061        61.33937        -3.44510
C         43.91098        60.54439        -3.03965
C         45.14815        62.70831        -3.10524
C         43.97554        63.41039        -2.80263
C         45.29232        65.55087        -2.87363
C         44.00031        64.86600        -2.70413
C         45.29035        67.01914        -2.86745
C         44.08946        67.75235        -2.69953
C         45.33110        69.84459        -2.53930
C         44.09907        69.15166        -2.54764
C         45.35665        71.30344        -2.39810
C         44.12294        72.01357        -2.11066
C         45.35894        74.23005        -2.23168
C         44.16603        73.41414        -1.79780
C         46.35079        33.72420         1.10143
C         47.37602        35.90322         1.65420
C         46.26444        35.14106         1.23588
C         47.30475        37.31004         1.76138
C         46.07273        37.97642         1.41993
C         47.14125        40.13315         1.92970
C         46.01253        39.40723         1.49120
C         47.07326        41.59352         2.08573
C         45.83368        42.30602         1.59718
C         47.14090        44.42231         1.47819
C         45.95556        43.73094         1.21758
C         47.11583        45.89178         1.36485
C         46.01370        46.54844         0.65511
C         47.23716        48.71929         0.62545
C         46.05892        47.95615         0.36969
C         47.26670        50.09894         0.26501
C         46.16898        50.71532        -0.33046
C         47.53251        52.82941        -0.76879
C         46.31657        52.00152        -1.11819
C         47.56753        54.25052        -1.14097
C         46.41149        54.91003        -1.60089
C         47.57964        57.07857        -1.53906
C         46.40220        56.32748        -1.81686
C         47.63978        58.46626        -1.88477
C         46.53685        59.05144        -2.56966
C         47.84848        61.17003        -2.80894
C         46.82300        60.30048        -3.17754
C         47.81529        62.60844        -3.32020
C         46.50935        63.34321        -2.78476
C         47.68703        65.48515        -3.66643
C         46.46108        64.84191        -3.04851
C         47.73214        67.06883        -3.56089
C         46.50123        67.73381        -2.99495
C         47.79253        69.91034        -3.05197
C         46.52476        69.12257        -2.79179
C         47.82317        71.17190        -2.20124
C         46.56470        71.98491        -2.35517
C         47.83748        74.07732        -2.40188
C         46.63559        73.42133        -2.30184
C         48.43182        38.07020         2.15952
C         49.51583        40.25356         2.61738
C         48.37998        39.48032         2.24127
C         49.51958        41.67455         2.56158
C         48.32311        42.36201         2.20222
C         49.53860        44.48537         2.17142
C         48.33032        43.75663         1.97233
C         49.67893        45.84817         1.54528
C         48.39679        46.66248         1.53371
C         49.66637        48.74557         1.11176
C         48.45700        48.06930         1.06599
C         49.73317        50.15465         0.81936
C         48.45234        50.94730         0.64646
C         49.95288        52.85759        -0.26209
C         48.59900        52.21150        -0.18853
C         49.90994        54.36318        -0.32095
C         48.76212        55.00287        -0.84705
C         49.92239        57.19472        -0.80037
C         48.76335        56.43693        -1.04182
C         49.95468        58.60480        -1.04564
C         48.82146        59.24096        -1.65796
C         50.07099        61.41374        -1.76829
C         48.89881        60.62335        -2.03302
C         50.18655        62.76394        -2.26886
C         49.06916        63.41285        -2.93422
C         50.16417        65.58325        -3.48824
C         49.00866        64.79552        -3.26063
C         50.23134        66.99690        -3.34525
C         49.01479        67.71715        -3.13394
C         50.28966        69.78486        -2.69684
C         49.06853        69.11034        -2.86984
C         50.28629        71.21751        -2.42015
C         49.11276        71.93433        -2.37415
C         50.28990        74.08888        -2.54712
C         49.11283        73.39024        -2.42766
C         50.67538        42.45331         2.86784
C         51.87568        44.65166         3.18153
C         50.68875        43.84038         2.67907
C         52.04993        46.03231         2.57065
C         50.75393        46.72726         2.21396
C         52.05192        48.86512         2.03453
C         50.97240        48.00350         1.37001
C         52.17857        50.20273         1.33919
C         50.91324        50.84564         0.93762
C         52.04322        53.12776         1.22424
C         50.87891        52.31648         0.79926
C         52.14431        54.51215         0.74296
C         51.07604        55.08775         0.01878
C         52.24477        57.29093         0.20337
C         51.22549        56.47921        -0.54098
C         52.14349        58.79860         0.18886
C         51.08681        59.38889        -0.72019
C         52.26622        61.56346        -0.63423
C         51.14125        60.77920        -1.04340
C         52.36457        62.91316        -0.98781
C         51.42074        63.45964        -1.93697
C         52.90204        65.44650        -2.10329
C         51.88503        64.60171        -2.61840
C         53.19380        66.73352        -2.63508
C         51.44098        67.73897        -3.36386
C         52.81144        69.71382        -2.71003
C         51.53818        69.07516        -2.91118
C         52.82752        71.18531        -2.46179
C         51.56937        71.93247        -2.21576
C         52.86717        74.08371        -2.63916
C         51.58805        73.46106        -2.12278
C         53.21094        46.71537         2.66958
C         54.38196        49.02320         2.85769
C         53.41274        48.11603         2.10598
C         54.36359        50.38029         2.67877
C         53.33744        51.02839         1.81515
C         54.25752        53.27871         2.30568
C         53.23999        52.49537         1.79734
C         54.27300        54.70352         2.02346
C         53.27117        55.26152         1.17376
C         54.53437        57.40106         1.16789
C         53.28549        56.67491         0.85007
C         54.66203        58.81997         0.73688
C         53.50074        59.44764         0.02772
C         54.58868        61.70719         0.45027
C         53.50027        60.91991        -0.14452
C         54.53926        63.11249         0.31896
C         53.48758        63.69204        -0.51233
C         54.57499        65.92389        -0.31328
C         53.62967        65.00691        -0.95740
C         54.88986        67.20650        -0.94438
C         54.04507        67.66125        -2.00687
C         55.14343        69.86695        -1.85308
C         54.00898        69.07179        -2.30903
C         55.25197        71.24103        -2.18337
C         54.09412        71.89423        -2.89471
C         55.32290        74.06324        -2.67155
C         54.05512        73.39639        -2.71558
C         55.32219        51.28356         3.29326
C         56.27969        53.51020         3.86461
C         55.30473        52.64031         3.09923
C         56.37659        54.93714         3.36925
C         55.35744        55.49946         2.53330
C         56.56616        57.66159         2.55910
C         55.48242        56.86262         2.15307
C         56.65674        59.06061         2.18757
C         55.66780        59.67136         1.38952
C         56.74946        61.85281         1.65279
C         55.65286        61.07620         1.16792
C         56.74783        63.29482         1.45749
C         55.60421        63.89457         0.83087
C         56.79413        66.13618         0.94539
C         55.58004        65.35407         0.68729
C         56.95826        67.40420         0.40871
C         55.98248        67.96351        -0.50970
C         57.31472        70.03658        -0.68612
C         56.16170        69.28287        -1.04521
C         57.46240        71.37083        -1.14908
C         56.39503        71.98317        -1.86845
C         57.71572        74.05893        -2.06578
C         56.48207        73.39179        -2.24510
C         57.44909        55.71553         3.77221
C         58.67847        57.87341         3.80779
C         57.58360        57.08690         3.39187
C         58.80285        59.23426         3.44653
C         57.76043        59.84514         2.64066
C         59.08807        61.99616         2.53221
C         57.81635        61.21557         2.31683
C         58.81590        63.45902         2.87520
C         57.79392        64.07579         1.95450
C         59.10645        66.21818         1.92115
C         57.74286        65.57930         1.96571
C         59.24712        67.51743         1.38683
C         58.17816        68.14426         0.66310
C         59.54254        70.17765         0.38768
C         58.34566        69.43752         0.12003
C         59.68801        71.51438        -0.12215
C         58.66320        72.10252        -0.87631
C         60.04678        74.10766        -1.28165
C         58.81850        73.44175        -1.42625
C         59.89296        60.02069         3.89148
C         61.11250        62.16563         3.94556
C         60.04349        61.37767         3.53043
C         61.23793        63.54542         3.53834
C         60.12518        64.21210         2.94726
C         61.47549        66.25161         2.64464
C         60.22075        65.55458         2.51665
C         61.59795        67.58479         2.20734
C         60.48253        68.23380         1.56265
C         61.75671        70.40173         1.57806
C         60.59000        69.56471         1.11736
C         61.99274        71.60219         0.70728
C         60.95961        72.20003         0.03603
C         62.29702        74.25027        -0.31268
C         61.14016        73.53378        -0.56468
C         62.45140        64.23997         3.69543
C         63.83493        66.24899         3.34906
C         62.60156        65.57565         3.24281
C         63.99571        67.57741         2.88627
C         62.86007        68.27086         2.32336
C         64.25768        70.25260         1.94474
C         62.99975        69.59938         1.88339
C         64.42974        71.56958         1.42927
C         63.37168        72.18301         0.54760
C         64.72772        74.26202         0.46451
C         63.33903        73.70717         0.63500
C         65.22936        68.25193         3.00139
C         66.62834        70.25314         2.62266
C         65.38811        69.57517         2.53539
C         66.78227        71.56323         2.13399
C         65.65701        72.22590         1.52265
C         67.12355        74.15476         0.99814
C         65.82027        73.56796         0.96651
C         68.03865        72.23031         2.16969
C         68.19284        73.49586         1.59814
O         29.06298        69.59545         1.56392
O         28.23167        64.40973         3.30497
O         47.97738        67.60914        -4.87768
O         34.77991        56.31342        -3.28114
O         42.01021        67.52487        -4.02036
O         53.29260        50.44086         0.42840
O         54.34552        66.01440         1.14278
O         45.97384        60.71521        -4.20611
O         52.37646        71.40809        -1.07646
O         33.91780        70.02182         3.72028
O         53.89876        59.95583        -1.25745
O         43.48637        45.76915        -1.77912
O         47.51955        46.50961         2.67265
O         50.79187        52.96954         2.10996
O         52.60782        67.12196        -3.85729
O         34.44460        52.28080        -0.29306
O         38.76734        68.79556        -3.00648
O         55.25470        57.75494        -0.09274
O         46.02044        42.06055         3.03434
O         51.33083        64.90645        -3.87056
O         37.97334        49.80306         0.30184
H         38.00829        50.71961         0.65080
O         62.91288        74.06420         1.98758
H         62.83352        75.03946         2.03435
O         43.04294        43.85046         2.08302
H         43.69062        43.41648         2.68051
O         27.06843        71.34087         7.99840
H         27.83612        70.80864         7.69885
O         44.92348        53.39085         0.27080
H         44.96677        52.64101         0.90126
O         40.71929        44.15396        -2.81450
H         40.87912        43.21531        -3.04878
O         40.73717        58.64269        -0.71208
H         40.00797        58.31536        -0.14475
O         45.07915        74.78677        -3.53371
H         44.91867        74.04361        -4.15179
O         51.75170        59.17925         1.55849
H         50.87243        58.78443         1.74098
O         49.98272        45.58086         0.13947
H         50.70263        44.91541         0.10487
O         47.77017        70.28149        -4.44826
H         47.79497        69.41327        -4.94203
O         33.65361        68.24118        -1.58561
H         34.36660        68.39383        -2.25382
O         51.80632        56.29448        -1.89335
H         52.72428        55.96592        -1.77951
O         40.14657        49.62971        -3.56809
H         40.78671        48.89805        -3.75832
O         50.16688        47.10209         3.49383
H         50.37527        46.38052         4.13561
O         41.16285        46.95373         0.70435
H         40.22951        46.81288         1.01250
O         51.64271        73.80287        -0.69203
H         52.15000        73.07177        -0.26191
O         41.88311        35.06358        -0.79913
H         42.41891        35.24367        -1.59834
O         40.19274        52.47621        -3.93566
H         40.17243        51.50189        -4.10638
O         38.56841        46.37646         0.63333
H         37.67722        46.81241         0.75140
O         37.54696        48.50060        -3.12385
H         38.37412        48.90120        -3.49188
O         47.79102        62.53840        -4.74850
H         47.74200        63.45984        -5.11382
O         58.22758        63.51212         4.20786
H         57.85995        64.42481         4.31193
O         46.63045        63.19504        -1.33290
H         45.87599        63.66182        -0.91469
O         46.55698        51.49390        -2.45968
H         46.31073        52.19587        -3.11026
O         34.63646        58.78205         0.07419
H         34.00321        59.18240         0.70652
O         51.50402        47.68011         0.07234
H         50.86967        47.07200        -0.37678
O         51.67947        49.23764         3.37690
H         51.09385        48.53273         3.75532
O         63.78572        71.88094        -0.82381
H         63.85171        70.90726        -0.91332
O         50.54817        52.41708        -1.52782
H         49.94429        52.68177        -2.25378
O         36.16809        68.19996        -2.73671
H         36.97078        68.56575        -3.19445
O         41.35726        56.14346        -4.24882
H         40.63134        55.51203        -4.44760
O         34.72920        58.80852        -3.57906
H         35.31568        58.35111        -4.21869
O         53.99150        47.88962         0.80202
H         53.92689        48.73965         0.30032
O         57.17479        65.95490         3.30990
H         56.19622        65.95916         3.21755
O         41.03572        58.96754        -4.33980
H         41.80314        59.18817        -4.90708
O         59.77131        62.01076         1.24289
H         59.93689        61.08158         0.97876
O         45.39087        53.65025        -3.36883
H         45.41003        54.44691        -3.94078
O         54.23833        71.67206        -4.32799
H         54.40674        70.71673        -4.47178
O         47.52976        65.19999        -5.08415
H         47.73576        66.07023        -5.54048
O         51.62266        44.88376         4.59187
H         51.34446        44.03401         4.99412
O         36.46435        56.60464        -0.07316
H         37.24912        56.18733         0.33943
O         31.21313        59.60437        -2.79741
H         31.35941        58.77939        -3.32936
O         33.97915        72.11591         5.18677
H         34.26530        71.17251         5.14740
O         42.62430        70.22988        -4.05776
H         42.43835        69.35950        -4.48732
O         36.39515        70.67930         2.99738
H         35.93118        70.42341         3.82538
O         30.05691        72.13157         2.09558
H         29.68821        71.41803         1.51709
O         36.32445        47.74285         0.26927
H         36.64902        48.63134         0.57094
O         61.33606        70.95135         2.88564
H         61.15095        70.18934         3.47511
O         34.96475        71.77073        -0.16365
H         35.20322        71.62854        -1.10362
O         48.13000        51.45715         1.98782
H         48.92142        51.93345         2.32929
O         57.57557        52.90181         3.91635
H         57.91718        52.83202         3.00155
O         47.83378        70.70722        -0.81129
H         47.93547        71.49153        -0.23194
O         34.88192        63.08280        -3.26597
H         35.56318        62.66982        -3.84439
O         30.19841        62.41395         2.80264
H         29.56587        62.78376         3.46024
O         41.66010        47.31448        -2.92938
H         42.45323        46.71731        -2.94467
O         41.24238        64.92979        -4.38536
H         41.35075        65.87693        -4.65074
O         37.49991        61.48435        -4.01622
H         37.72910        60.62843        -4.43785
O         32.37015        57.26576        -3.48279
H         33.20145        57.61459        -3.89639
O         26.10342        70.05701         2.74359
H         26.86677        70.37593         2.21484
H         25.49415        73.78441         7.74885
H         27.82923        73.84041         6.83200
H         29.97567        74.04839         5.70494
H         32.23772        74.02321         4.97224
H         34.25817        74.34753         3.30524
H         36.38319        74.59938         2.12499
H         38.68087        74.74641         1.14849
H         40.89008        74.90799         0.11634
H         43.11402        75.09664        -0.96773
H         45.50136        75.10082        -1.54178
H         47.85001        75.17744        -2.41163
H         50.26221        75.18473        -2.64697
H         52.91294        75.18351        -2.56925
H         55.35366        75.15740        -2.79185
H         57.81445        75.10059        -2.40695
H         60.16065        75.11900        -1.70095
H         62.38014        75.29166        -0.66353
H         64.86006        75.29165         0.09454
H         67.26725        75.15536         0.56531
H         23.69550        68.47256         5.58961
H         22.83941        70.51805         6.75810
H         23.22901        72.80024         7.68795
H         25.15554        65.13621         2.18059
H         24.43966        66.66607         4.02023
H         27.32469        60.79777         0.49767
H         26.28846        62.79909         1.07988
H         29.51746        56.52516        -0.65631
H         28.39328        58.63697        -0.07429
H         31.59174        52.39790        -2.02000
H         30.60882        54.43445        -1.14613
H         34.26660        47.99693        -1.88234
H         33.21671        50.04987        -2.51219
H         36.82203        43.57940        -1.76634
H         35.57936        45.78609        -2.04115
H         39.33804        39.33226        -1.05159
H         38.04046        41.46816        -1.31625
H         41.91306        35.40116         1.22415
H         40.57061        37.22466        -0.55363
H         45.33033        31.90282         0.57430
H         43.16002        33.04572         0.09184
H         47.30269        33.22329         1.32903
H         48.32075        35.39203         1.89233
H         49.37017        37.54918         2.40060
H         50.44311        39.73002         2.89211
H         51.57996        41.94554         3.23577
H         52.82434        44.05277         3.07577
H         54.10626        46.19324         3.04815
H         55.18573        48.57029         3.46042
H         56.10225        50.85228         3.93945
H         55.91782        53.55457         4.93233
H         58.22731        55.26026         4.40295
H         59.45582        57.41670         4.43874
H         60.63983        59.56060         4.55724
H         61.90947        61.72618         4.56534
H         63.31697        63.72629         4.13980
H         64.69424        65.73107         3.80062
H         66.08472        67.73541         3.46177
H         67.49408        69.73385         3.06028
H         68.89942        71.72803         2.63405
H         69.17891        73.98138         1.62460
