         244
 CSIRO Nanostructure Databank - Neutral Graphene Oxide Data Set
C          1.24275         2.04550         0.61488
C          1.26172         3.42260         0.15371
C          2.38101         1.38920         0.92627
C          2.38039         4.20068         0.25756
C          1.22882         6.31237        -0.46519
C          1.25592         7.65174        -0.82632
C          2.41399         5.60879        -0.16360
C          2.46133         8.39292        -0.82786
C          1.33390        10.40195        -1.76190
C          1.34055        11.74610        -2.14190
C          2.45991         9.83076        -1.16202
C          2.44531        12.55382        -1.87474
C          1.19537        15.49312        -1.11226
C          1.21422        16.56015        -0.21350
C          2.38458        14.81300        -1.37624
C          2.44137        17.03838         0.28201
C          2.46550        18.16881         1.16990
C          3.70963         2.07428         0.71798
C          3.58009         3.58994         0.98009
C          4.85475         1.48340         1.56156
C          4.87894         4.25372         0.61130
C          3.64977         6.30960        -0.24015
C          3.65940         7.71912        -0.50040
C          4.86730         5.50969        -0.01762
C          4.86605         8.58929        -0.19495
C          3.61381        10.66479        -0.94869
C          3.61327        12.07311        -1.22573
C          4.81777        10.06346        -0.50141
C          4.80399        12.88525        -0.95728
C          3.63218        15.16019        -0.79882
C          3.67301        16.41295        -0.08107
C          4.79667        14.31389        -0.88113
C          4.92113        17.05755         0.22916
C          3.64711        18.68562         1.60610
C          4.91859        18.22751         1.10115
C          6.16156         2.19812         1.26557
C          6.10849         3.55994         0.80664
C          7.37869         1.55243         1.39762
C          7.34872         4.22751         0.55398
C          6.11099         5.96769        -0.49753
C          6.15846         8.10217        -0.77471
C          7.34401         5.53570        -0.01689
C          7.32640         8.63784        -0.38092
C          6.01747        10.78673        -0.42203
C          6.03191        12.18997        -0.64632
C          7.28124        10.07959         0.07755
C          7.30970        12.88900        -0.51914
C          6.09970        15.06711        -0.91116
C          6.09784        16.42764        -0.24624
C          7.34423        14.29432        -0.56337
C          7.34496        17.08204        -0.28332
C          6.05094        18.88961         1.60839
C          7.34157        18.79177         1.02471
C          8.62977         2.21421         1.14361
C          8.58277         3.57757         0.76721
C          9.88640         1.53042         1.14651
C          9.81238         4.35677         0.59078
C          8.56186         6.31508        -0.22379
C          8.56132         7.83422        -0.03441
C          9.76504         5.69526        -0.02248
C          9.83403         8.55436        -0.39813
C          8.57850        10.73327        -0.34462
C          8.55433        12.17689        -0.45691
C          9.75215         9.99654        -0.47072
C          9.77125        12.89364        -0.59162
C          8.57229        14.99391        -0.42782
C          8.59861        16.43689        -0.23441
C          9.78803        14.28899        -0.51909
C          9.79353        17.10562         0.19050
C          8.60451        18.91921         1.57357
C          9.78482        18.34186         0.96863
C         11.10264         2.16794         0.84597
C         11.13247         3.63868         0.69765
C         12.33129         1.48243         0.70115
C         12.34433         4.31477         0.18202
C         11.02171         6.34395        -0.53949
C         11.03269         7.85118        -0.44656
C         12.32363         5.67504        -0.15441
C         12.30205         8.49188        -0.67941
C         11.06445        10.74691        -0.45796
C         10.98727        12.13946        -1.08886
C         12.26171         9.95651        -1.05236
C         12.31196        12.82678        -0.84261
C         11.08676        15.05983        -0.64605
C         11.04598        16.40809         0.05890
C         12.22406        14.13717        -0.09484
C         12.22553        16.95745         0.55751
C         11.00975        18.91220         1.35262
C         12.25118        18.29369         1.09768
C         13.53934         2.15637         0.40576
C         13.55252         3.57997         0.16121
C         14.76883         1.44974         0.28408
C         14.76455         4.25977        -0.14223
C         13.53996         6.35790        -0.45624
C         13.49354         7.78410        -0.76584
C         14.75809         5.64969        -0.42176
C         14.77427         8.46895        -1.12553
C         13.57044        10.66038        -0.66971
C         13.49072        12.15167        -0.89795
C         14.80058         9.97666        -1.22294
C         14.77537        12.92246        -1.05556
C         13.55305        14.85320        -0.02068
C         13.48514        16.18746         0.62049
C         14.72689        14.27462        -0.36659
C         14.76920        16.94212         0.85101
C         13.47224        18.98425         1.33127
C         14.73174        18.39806         1.10054
C         15.96462         2.11978         0.04855
C         15.99929         3.52957        -0.10308
C         17.26841         1.39584        -0.13699
C         17.25455         4.22862        -0.04781
C         16.05749         6.26797        -0.89995
C         16.05184         7.77964        -0.84480
C         17.27803         5.60075        -0.29480
C         17.20695         8.50647        -0.68078
C         16.07685        10.69872        -1.01728
C         16.05490        12.13203        -0.79763
C         17.23713         9.95183        -0.82912
C         17.22103        12.82000        -0.51800
C         16.03847        15.02779        -0.34919
C         16.02782        16.34238         0.39048
C         17.20239        14.17401         0.15524
C         17.21234        17.01708         0.54586
C         15.95526        19.08063         1.17108
C         17.20037        18.41929         0.95269
C         18.41731         1.99431         0.71192
C         18.35415         3.58855         0.79350
C         19.69501         1.39820         0.18342
C         19.78410         4.28267         0.62786
C         18.48763         6.35255        -0.12477
C         18.43753         7.82659        -0.19474
C         19.70453         5.71912         0.13167
C         19.76737         8.58438        -0.17281
C         18.52730        10.65093        -0.88436
C         18.51665        12.19731        -0.76644
C         19.79320         9.99435        -0.58177
C         19.77858        12.87439        -0.42300
C         18.50592        14.95563         0.04742
C         18.48254        16.33150         0.29775
C         19.75351        14.27216        -0.12364
C         19.70536        17.06736         0.42199
C         18.41432        19.10336         1.02808
C         19.66333        18.45859         0.77085
C         20.81970         2.09004        -0.12730
C         20.86668         3.51693        -0.07126
C         22.01414         4.20941        -0.47908
C         20.96080         6.39788        -0.09218
C         21.01512         7.81515        -0.24502
C         22.10485         5.59467        -0.35708
C         22.20393         8.55304        -0.48008
C         20.99665        10.70108        -0.61572
C         20.99418        12.16905        -0.54897
C         22.20833         9.93475        -0.56255
C         22.20162        12.90973        -0.44023
C         20.98189        14.99207        -0.03632
C         20.95858        16.41390         0.24340
C         22.19129        14.27391        -0.21854
C         22.14468        17.17784         0.36710
C         20.87238        19.17626         0.88077
C         22.09494        18.53659         0.66948
O         14.11252        16.19231         1.94732
O          7.32886        18.47599        -0.35273
O         17.91371         3.92890         2.08142
O          2.36342        13.84866        -2.39217
O         14.70301         9.18507        -2.44846
O          6.10812         6.92415        -1.51463
O         18.94895         8.41087         1.05217
O         10.60368         4.36608         1.85817
O         11.80743        13.68571         1.17315
O         18.61496        11.52428        -2.05985
O         10.94944         6.07231        -2.00231
H         11.62559         6.63688        -2.43606
O          6.26113        15.37069        -2.36054
H          5.48491        15.90507        -2.63474
O         11.33801        15.29324        -2.04857
H         11.21064        14.43619        -2.51730
O         16.97251        13.94311         1.56865
H         17.69288        13.38018         1.91935
O         17.67022         1.52004        -1.51335
H         16.92091         1.25000        -2.08270
O          3.35697         3.74374         2.40832
H          3.29966         4.70204         2.60332
O          4.96570         0.08774         1.28061
H          4.99625         0.00166         0.30361
O          7.22489        10.16464         1.53731
H          6.43323         9.63086         1.80300
O          4.08439         1.85163        -0.66597
H          3.33848         2.14752        -1.22946
O         10.76947        12.14363        -2.52523
H         11.35726        11.44778        -2.91580
O         14.85880        13.19488        -2.49856
H         15.63460        13.79277        -2.62756
O         16.36397        15.34864        -1.74390
H         15.69199        15.98184        -2.07435
O          8.55917         7.86557         1.43982
H          8.39729         8.80251         1.72485
O         20.30476         4.33643         1.97976
H         19.47051         4.31724         2.54679
O         12.14230         9.95025        -2.50352
H         13.01697         9.64051        -2.85799
O         13.81348        10.49516         0.75633
H         12.97056        10.73335         1.22790
O         11.29002        11.00574         0.95899
H         11.39514        12.00492         1.11028
O          5.03976         8.47221         1.27580
H          4.18471         8.72075         1.68838
O         18.29053         1.50235         2.05042
H         18.03387         2.31793         2.58034
O         16.13014         5.96075        -2.34300
H         15.47559         6.53212        -2.79986
H          0.26891         1.53759         0.67519
H          0.33571         3.81983        -0.28736
H          2.36858         0.32768         1.21427
H          0.25761         5.80180        -0.41059
H          0.30171         8.14565        -1.05139
H          0.44634         9.79823        -1.98875
H          0.48132        12.17717        -2.67103
H          0.26574        15.17985        -1.60403
H          0.28224        17.07489         0.05889
H          1.50896        18.59524         1.50446
H          4.60909         1.59378         2.64881
H          3.64915        19.53677         2.30271
H          7.38771         0.49526         1.70270
H          5.91790        19.52339         2.49907
H          9.89137         0.44402         1.32578
H          8.72616        19.40303         2.55449
H         12.35618         0.39123         0.84623
H         10.99899        19.87513         1.88501
H         14.77369         0.35636         0.41366
H         13.42239        20.03632         1.65175
H         17.14883         0.30614         0.12222
H         15.96263        20.15742         1.40008
H         19.69770         0.30219         0.06831
H         18.41928        20.17008         1.29932
H         21.71025         1.55692        -0.49671
H         22.88396         3.64057        -0.84025
H         23.06598         6.07752        -0.58205
H         23.16941         8.02915        -0.50989
H         23.17679        10.44728        -0.63567
H         23.16929        12.40151        -0.54720
H         23.15334        14.80124        -0.16605
H         23.12517        16.70327         0.22781
H         20.84539        20.24358         1.14301
H         23.03032        19.10680         0.75716
