         341
 CSIRO Nanostructure Databank - Neutral Graphene Oxide Data Set
C          1.25992         2.18806        -0.97301
C          1.22845         3.55628        -0.75670
C          2.48171         1.49477        -1.01448
C          2.42638         4.29896        -0.57871
C          1.21397         6.47877        -0.38794
C          1.21494         7.83462        -0.19925
C          2.42653         5.72238        -0.37418
C          2.42663         8.56106         0.03674
C          1.20134        10.73188         0.19093
C          1.17791        12.07816         0.25936
C          2.43479         9.96717         0.19952
C          2.43261        12.90141         0.22828
C          1.14086        14.97741         0.99265
C          1.16570        16.32781         0.88434
C          2.38194        14.13884         1.15341
C          2.39922        17.06863         0.80245
C          2.40341        18.48255         0.70379
C          3.68862         2.17830        -0.85383
C          3.67553         3.60246        -0.64032
C          4.93992         1.45942        -0.81840
C          4.89136         4.30577        -0.46894
C          3.64920         6.41299        -0.15085
C          3.66128         7.82914         0.07702
C          4.88756         5.68559        -0.17226
C          4.88094         8.50688         0.36448
C          3.66715        10.66028         0.42155
C          3.67661        12.08034         0.53624
C          4.88860         9.92882         0.57552
C          4.86431        12.75188         0.84203
C          3.66413        14.92353         0.95771
C          3.64209        16.35997         0.81964
C          4.86022        14.21904         0.92016
C          4.84023        17.07432         0.65670
C          3.58061        19.18719         0.55800
C          4.83863        18.49958         0.45966
C          6.14053         2.10786        -0.69252
C          6.18745         3.61392        -0.80850
C          7.38406         1.39940        -0.52463
C          7.39782         4.20818        -0.14530
C          6.10065         6.38266         0.14661
C          6.09372         7.74068         0.43184
C          7.36757         5.60995         0.41621
C          7.34041         8.38994         0.91729
C          6.08791        10.63861         0.91599
C          6.08357        12.03252         1.02530
C          7.32296         9.86648         1.22167
C          7.28373        12.83295         1.53492
C          6.11583        14.91094         0.85454
C          6.11824        16.36901         0.74996
C          7.32858        14.21260         0.89637
C          7.39982        17.06079         0.22696
C          6.00867        19.17820         0.13568
C          7.27176        18.49986        -0.33346
C          8.56235         2.05171        -0.26314
C          8.57123         3.49743        -0.08667
C          9.78829         1.25125         0.12119
C          9.83406         4.19646         0.19648
C          8.60937         6.38697        -0.00948
C          8.63731         7.75202         0.63548
C          9.85130         5.56951         0.25595
C          9.84680         8.47200         0.69014
C          8.64188        10.59334         1.32888
C          8.62470        12.08045         1.48534
C          9.88881         9.89150         0.91502
C          9.89471        12.91965         1.30173
C          8.50916        14.82510         0.39711
C          8.49242        16.12777        -0.13393
C          9.74681        13.96936         0.19473
C          9.71341        16.66846        -0.68191
C          8.50400        19.30767         0.07459
C          9.72030        18.92840        -0.40529
C         11.08355         2.02918         0.06478
C         11.08120         3.44487         0.18686
C         12.28397         1.33500        -0.04393
C         12.31825         4.15014         0.10574
C         11.10567         6.28299         0.66565
C         11.08027         7.77643         0.43914
C         12.34030         5.58254         0.17166
C         12.26048         8.48455         0.25751
C         11.10495        10.58495         0.82311
C         11.17004        12.05291         1.07051
C         12.29572         9.89803         0.42332
C         12.38460        12.76784         0.51869
C         11.02617        14.78413         0.05096
C         10.95475        16.15658        -0.38272
C         12.24637        14.16520         0.06300
C         12.18434        17.00801        -0.08355
C         11.06650        19.35797        -0.14817
C         12.18573        18.52628        -0.31705
C         13.53493         2.01407        -0.12560
C         13.53278         3.44654        -0.11617
C         14.76305         1.32164        -0.20155
C         14.75553         4.16108        -0.31902
C         13.50136         6.28922        -0.08456
C         13.46002         7.77794        -0.32715
C         14.73162         5.60334        -0.32914
C         14.76658         8.46720        -0.03579
C         13.54321        10.60089         0.17361
C         13.55418        11.99372         0.07083
C         14.77761         9.87454         0.01720
C         14.74325        12.71269        -0.31179
C         13.36065        14.80055        -0.74460
C         13.44759        16.30721        -0.54768
C         14.67402        14.07506        -0.59232
C         14.61047        16.99579        -0.71962
C         13.45698        19.14788        -0.33933
C         14.67034        18.44526        -0.52534
C         15.98849         2.01711        -0.32859
C         15.96284         3.44295        -0.45622
C         17.23806         1.33250        -0.35744
C         17.20850         4.14949        -0.78865
C         15.93748         6.35084        -0.39164
C         15.96394         7.73485        -0.11796
C         17.18709         5.67020        -0.75116
C         17.25775         8.43006         0.23912
C         16.02800        10.58455        -0.16455
C         16.00330        11.99456        -0.40427
C         17.25275         9.88922        -0.17677
C         17.20816        12.67760        -0.68944
C         15.87430        14.77064        -1.04105
C         15.85343        16.30358        -1.14273
C         17.16921        14.09850        -0.91979
C         17.14007        16.99273        -0.99383
C         15.90108        19.11404        -0.58166
C         17.14843        18.44695        -0.79838
C         18.47658         2.01000        -0.44328
C         18.50227         3.44890        -0.62363
C         19.70329         1.32728        -0.35307
C         19.69836         4.14229        -0.70996
C         18.46739         6.38994        -0.57818
C         18.50126         7.69455        -0.21286
C         19.69149         5.61201        -0.92894
C         19.79703         8.44490        -0.01198
C         18.48154        10.57371        -0.42944
C         18.46164        11.98292        -0.70700
C         19.72761         9.89320        -0.43098
C         19.68280        12.67162        -0.98577
C         18.33629        14.83884        -1.02935
C         18.32086        16.27360        -0.98810
C         19.60445        14.12311        -1.26497
C         19.56904        17.00036        -0.53686
C         18.34322        19.14279        -0.88318
C         19.63105        18.42519        -1.18459
C         20.94979         2.01934        -0.35387
C         20.96916         3.46778        -0.59058
C         22.12681         1.35315        -0.04047
C         22.18958         4.15240        -0.67866
C         20.99917         6.33147        -0.88842
C         21.01603         7.75583        -0.54969
C         22.26336         5.57608        -0.78589
C         22.21389         8.45673        -0.62354
C         20.94395        10.58162        -0.68218
C         20.92442        12.00174        -0.94800
C         22.18348         9.88089        -0.67779
C         22.19283        12.70995        -1.05224
C         20.89987        14.93910        -1.27818
C         20.85275        16.29864        -0.77783
C         22.18932        14.17723        -1.25427
C         22.06540        16.96984        -0.21187
C         20.86950        19.13577        -0.71293
C         22.05124        18.47964        -0.42053
C         23.35121         2.16086         0.26988
C         23.47417         3.34111        -0.69211
C         24.64005         1.39317         0.38005
C         24.71995         4.14324        -0.39709
C         23.46141         6.29300        -0.77107
C         23.48519         7.72891        -0.71157
C         24.76586         5.55530        -0.92253
C         24.68705         8.43121        -0.55392
C         23.47646        10.56369        -1.03530
C         23.41352        12.06151        -0.89617
C         24.61993         9.91707        -0.24977
C         24.67013        12.77713        -0.74340
C         23.45542        14.92449        -0.96917
C         23.39768        16.34299        -0.54410
C         24.67206        14.15229        -0.68657
C         24.53011        17.01277        -0.18590
C         23.27430        19.15465        -0.15833
C         24.49843        18.45914         0.03457
C         25.83085         2.06418         0.34208
C         25.86626         3.49687         0.00145
C         27.07436         1.40344         0.67527
C         27.12622         4.21486         0.08405
C         25.95914         6.33237        -0.43589
C         25.93821         7.74253        -0.40741
C         27.14102         5.60883        -0.13634
C         27.15159         8.49307        -0.14754
C         25.93338        10.64656        -0.40203
C         25.93691        12.04756        -0.54725
C         27.14530         9.93135        -0.19171
C         27.16372        12.76878        -0.44048
C         25.92253        14.97938        -0.72934
C         25.79900        16.24160         0.11513
C         27.18024        14.21155        -0.41879
C         27.06296        17.05525         0.05391
C         25.71056        19.13353         0.23829
C         26.98620        18.47161         0.22059
C         28.23544         2.10583         0.86339
C         28.29113         3.54353         0.60349
C         29.47215         1.44462         1.26910
C         29.44766         4.24151         0.92698
C         28.40335         6.35370        -0.07395
C         28.37835         7.81560         0.03430
C         29.64576         5.61152         0.46949
C         29.58974         8.51106         0.31013
C         28.37599        10.64146        -0.05121
C         28.38636        12.06758        -0.16879
C         29.59036         9.94196         0.24625
C         29.60161        12.78417         0.00802
C         28.33220        14.93997        -0.20821
C         28.29093        16.38473        -0.02195
C         29.66052        14.25097        -0.34555
C         29.50642        17.12175         0.15675
C         28.18519        19.19994         0.30974
C         29.43981        18.54331         0.30642
C         30.53952         2.14713         1.70056
C         30.43777         3.64029         1.89555
C         31.75495         4.36358         1.89951
C         30.77586         6.40877         0.95723
C         30.78336         7.80786         0.72869
C         31.86172         5.67418         1.55162
C         31.95005         8.58607         1.00195
C         30.78798        10.67324         0.49700
C         30.79204        12.11131         0.37132
C         31.95860         9.95327         0.86695
C         31.95934        12.88222         0.65206
C         30.81551        15.00617         0.25830
C         30.76962        16.45008         0.28451
C         31.94527        14.27830         0.64241
C         31.92750        17.22536         0.48677
C         30.64500        19.28165         0.48249
C         31.86193        18.62521         0.56031
O         23.02480        14.65574        -2.36830
O          9.67480        17.88152        -1.37295
O         15.68868        15.47971        -2.34134
O         20.29438         6.05421        -2.19162
O          7.17251         8.89547         2.30667
O         20.17913        14.60147        -2.52574
O          8.78297        11.22925         2.66753
O          7.09838        17.01874         1.64104
O         29.42028         5.81380        -0.97314
O         12.21385        12.49229         1.98068
O          2.57402        13.41959        -1.12709
H          2.57812        12.65597        -1.74121
O         20.00530         8.47896         1.47208
H         20.80335         9.02867         1.63546
O         25.65432        15.80926         1.50573
H         25.77600        16.59547         2.07830
O         12.98384        14.60551        -2.15720
H         13.76316        14.90726        -2.68517
O         23.63844         2.82736        -2.03911
H         23.86625         3.59984        -2.60791
O          9.87854         0.05006        -0.65231
H         10.02717         0.29756        -1.58757
O          6.99925        13.08540         2.93645
H          7.33846        12.30553         3.43447
O         17.28680         8.42790         1.70716
H         18.22621         8.58556         1.97418
O         29.94060        14.27194        -1.81222
H         30.79608        13.80919        -1.94387
O         11.15928         6.14906         2.13584
H         10.28492         6.42760         2.48631
O          7.14582        18.43662        -1.77500
H          8.04878        18.26783        -2.13603
O         13.26942         7.90868        -1.78869
H         14.04638         7.49474        -2.22295
O         19.37250        17.21056         0.89203
H         20.25158        17.13869         1.34270
O          9.59066        13.22844        -1.05158
H          9.77894        13.83381        -1.79979
O         29.87399         3.83866         3.24778
H         29.03373         3.33341         3.28497
O         19.71827        18.17127        -2.61336
H         19.67887        19.03068        -3.08144
O         26.03842        15.43941        -2.10606
H         25.96230        14.66386        -2.70034
O         24.94871         5.39451        -2.39304
H         25.89222         5.16722        -2.54302
O         24.25033        10.03832         1.16190
H         24.99241         9.68589         1.69698
O          8.52280         6.59575        -1.45286
H          9.34090         7.05241        -1.74243
O         23.11970         2.76218         1.59457
H         23.00884         2.03076         2.23761
O         10.06204        13.66382         2.51088
H         10.14790        13.02252         3.24758
O         21.98694        16.81023         1.27576
H         22.70480        17.36049         1.65847
O          7.47819         5.47594         1.86598
H          6.63422         5.11331         2.20705
O          2.36455        13.61877         2.51160
H          2.48781        14.37039         3.12781
O          6.38076         3.89145        -2.25014
H          7.26933         3.55513        -2.49385
O         17.10763         4.94719        -2.02732
O         23.75685        10.29592        -2.44230
H         23.03305        10.68540        -2.97675
O         12.24616        16.94279         1.38854
H         13.02333        17.46670         1.67801
H          0.31888         1.63592        -1.10506
H          0.25446         4.06203        -0.72168
H          2.48953         0.40638        -1.16973
H          0.25580         5.97267        -0.56488
H          0.25558         8.36648        -0.23466
H          0.24418        10.19395         0.15458
H          0.21076        12.60091         0.23755
H          0.16984        14.46708         1.07577
H          0.22157        16.89258         0.83971
H          1.44294        19.01804         0.72907
H          4.90986         0.35895        -0.85026
H          3.56379        20.28173         0.45637
H          7.36925         0.29870        -0.53434
H          5.95671        20.26876        -0.00911
H          9.64040         0.92016         1.18965
H          8.41523        20.07614         0.85425
H         12.26317         0.23633        -0.09569
H         11.24343        20.41912         0.09169
H         14.76830         0.22230        -0.16362
H         13.49843        20.24797        -0.30532
H         17.24052         0.23635        -0.26346
H         15.91127        20.20694        -0.45233
H         19.70307         0.23842        -0.19387
H         18.34968        20.23378        -0.72979
H         22.10830         0.27211         0.17019
H         20.83816        20.23437        -0.61777
H         24.61419         0.32989         0.66788
H         23.30226        20.25100        -0.25286
H         27.05610         0.31724         0.85351
H         25.69919        20.22951         0.33684
H         29.50921         0.34569         1.21409
H         28.15172        20.29458         0.41431
H         31.45944         1.63277         2.01699
H         32.62400         3.84094         2.32627
H         32.82571         6.18159         1.70439
H         32.87724         8.08104         1.30383
H         32.89460        10.49134         1.06576
H         32.88592        12.38069         0.95892
H         32.84703        14.80470         0.98676
H         32.90893        16.73911         0.57065
H         30.59555        20.37637         0.57090
H         32.78817        19.20055         0.69860
