         271
 CSIRO Nanostructure Databank - Neutral Graphene Oxide Data Set
C        -11.20249         0.67863        -0.50548
C        -10.06540         1.45598         0.12900
C         -8.75268         0.75253        -0.21496
C         -7.47975         1.50695        -0.03383
C         -6.19496         0.75194         0.08578
C         -5.01426         1.42444        -0.00095
C         -3.72922         0.68959        -0.23482
C         -2.34408         1.39818        -0.23019
C         -1.42376         0.72451         0.79693
C         -0.09713         1.46598         1.06288
C          1.22473         0.74243         1.13667
C          2.52073         1.50802         1.02906
C          3.77798         0.79276         0.65305
C          4.75984         1.48015        -0.29482
C          6.13371         0.80795        -0.29667
C          7.15312         1.42845        -1.24538
C          8.46636         0.69811        -1.21449
C         10.26049         1.92193        -1.02075
C         11.32924         1.03007        -0.58597
C         -9.97378         2.91076        -0.27199
C         -8.79791         3.63751        -0.15517
C         -7.58821         2.95168         0.44860
C         -6.26453         3.71045         0.30066
C         -5.00266         2.91054         0.11442
C         -3.75623         3.64261        -0.25442
C         -2.46199         2.91736        -0.15824
C         -1.17609         3.68051         0.11565
C         -0.17397         3.01599         1.09557
C          1.17009         3.74166         0.83659
C          2.46799         2.98949         0.80493
C          3.70096         3.63460         0.27238
C          4.84421         2.98032        -0.05107
C          6.06044         3.74748        -0.50127
C          7.24334         2.99456        -1.07000
C          8.59451         3.76098        -1.29528
C          9.81981         3.14346        -0.62081
C         -8.71710         5.00695        -0.52463
C         -7.50806         5.76784        -0.55574
C         -6.24531         5.11692        -0.20198
C         -5.05374         5.77367        -0.39044
C         -3.77474         5.12464        -0.13728
C         -2.62066         5.83788        -0.01040
C         -1.38005         5.18816         0.55276
C         -0.10678         5.90681         0.14994
C          1.12986         5.07860         0.10616
C          2.43780         5.78423        -0.09343
C          3.68234         5.10991         0.40260
C          4.94354         5.87237         0.38705
C          6.28807         5.20462         0.06322
C          7.19767         5.99364        -0.95682
C          8.49513         5.23777        -1.00579
C         -7.50030         7.09792        -0.95963
C         -6.25662         7.92063        -1.21853
C         -4.97068         7.13231        -0.98303
C         -3.69154         7.90785        -0.84884
C         -2.71726         7.33691         0.17835
C         -1.33404         8.06365         0.30456
C         -0.11284         7.24844        -0.07397
C          1.12503         7.98638        -0.44284
C          2.44620         7.25240        -0.42315
C          3.68757         8.01829        -0.13847
C          4.78537         7.34041         0.30287
C          6.59526         8.43260        -0.28581
C          7.40356         7.52295        -0.89612
C         -6.18252         9.20244        -0.38689
C         -5.03395         9.88499        -0.25192
C         -3.78001         9.43212        -0.99703
C         -2.47328        10.10691        -0.63452
C         -1.32747         9.46611        -0.26505
C         -0.04029        10.15197        -0.28855
C          1.15681         9.46906        -0.32595
C          2.44470        10.12290        -0.40877
C          3.66888         9.47092        -0.32710
C          4.89957        10.21850        -0.59692
C          6.19371         9.77945        -0.68897
C        -11.20425        -0.66431        -0.52982
C        -10.07598        -1.46717         0.09739
C         -8.75972        -0.75540        -0.19670
C         -7.49911        -1.48574         0.09027
C         -6.25146        -0.71629         0.50486
C         -5.06380        -1.58020         0.03041
C         -3.74802        -0.80733        -0.09870
C         -2.47726        -1.51694         0.20028
C         -1.23360        -0.71009         0.28240
C          0.04698        -1.45394         0.52028
C          1.29334        -0.71192         0.85572
C          2.48226        -1.36715         0.71241
C          3.76907        -0.69220         0.56445
C          4.93771        -1.35621         0.32223
C          6.24493        -0.65188         0.07395
C          7.52013        -1.41828        -0.36041
C          8.71301        -0.50110        -0.62423
C         10.03057        -1.16233        -0.68136
C         11.23504        -0.33748        -0.63223
C        -10.01838        -2.94503        -0.36623
C         -8.76422        -3.70463         0.08795
C         -7.57593        -2.92614         0.54251
C         -6.31067        -3.65548         0.90343
C         -4.98929        -2.91009         0.78938
C         -3.69800        -3.62858         0.60456
C         -2.45263        -2.87744         0.30677
C         -1.21109        -3.62593         0.49051
C         -0.02202        -2.90358         0.67536
C          1.22408        -3.55009         1.19218
C          2.39688        -2.83958         0.53972
C          3.64147        -3.57496         0.29723
C          4.95828        -2.85653         0.22159
C          5.84518        -3.43064         1.30091
C          8.14601        -2.46207         0.59805
C          9.06191        -3.41737        -0.12877
C         10.13967        -2.55605        -0.60817
C         -8.69432        -5.06077        -0.01571
C         -7.47956        -5.84997         0.20746
C         -6.29935        -5.21550         0.95881
C         -5.00016        -5.80834         0.37305
C         -3.72079        -5.07379         0.24791
C         -2.40762        -5.82687         0.03076
C         -1.21198        -5.04033         0.49339
C          0.10173        -5.74875         0.30267
C          1.25865        -5.07604         1.01643
C          2.53996        -5.80736         0.83225
C          3.76469        -5.05563         0.47141
C          5.12090        -5.66841         0.59430
C          6.16427        -4.75327         1.13960
C          8.03717        -5.71944         0.41861
C          9.02397        -4.79854        -0.17615
C         -7.38944        -7.14354        -0.21860
C         -6.07374        -7.89599        -0.35529
C         -4.99991        -7.31937         0.57208
C         -3.65106        -7.98963         0.37129
C         -2.40411        -7.22396         0.72540
C         -1.10147        -7.95441         0.40217
C          0.09311        -7.26455         0.43141
C          1.38928        -7.95334         0.35469
C          2.57480        -7.25505         0.53636
C          3.88179        -7.92217         0.73449
C          5.19167        -7.14867         0.82904
C          6.51363        -7.78574         0.39245
C          7.64590        -6.92479        -0.10522
C         -6.07379        -9.40595        -0.21041
C         -4.89423       -10.04991        -0.07243
C         -3.62067        -9.33108         0.09752
C         -2.34504       -10.01700        -0.03536
C         -1.13942        -9.36792         0.08444
C          0.14380       -10.08348        -0.32778
C          1.43983        -9.36679         0.02126
C          2.64886        -9.99130        -0.15613
C          3.92441        -9.39037         0.28857
C          5.23522        -9.87258        -0.20883
C          6.38414        -9.15858        -0.16462
O        -10.27572        -1.48375         1.52855
H        -10.38444        -0.54690         1.82719
O         -7.17348        -3.10440         1.93143
O          3.85923        -9.00902         1.70161
O         -0.35415        -0.93082        -0.84185
O          0.43886        -5.53407        -1.11167
H         -0.38301        -5.71987        -1.62960
O          9.45409         1.29768        -2.00971
O         -5.40127         3.42072         1.44401
O         -4.62543        -5.29583        -0.91515
O          0.44334         1.01164         2.35605
O         -3.42604         7.53366         1.42987
H         -2.95326         6.99277         2.10609
O          6.23293         3.57496        -1.94469
O         -7.95807        -1.31780        -1.27942
O          3.58056         1.24001         2.01898
O         -1.20879         8.25000         1.80320
O          5.87480         8.01394         0.85277
O         -5.38432        -2.06745        -1.29182
H         -5.18998        -1.34560        -1.93412
O         -0.54336         3.28004         2.45964
H          0.15757         2.86150         3.01415
O         -6.31226         8.32159        -2.62070
H         -6.00017         7.56025        -3.15593
O          1.83817         5.00272        -1.17052
O         -8.06770         4.15259         2.45660
O          6.58721         0.42570         1.01859
O         -3.97286         9.78099        -2.38365
H         -4.80875         9.34187        -2.68582
O          6.64975         1.19346        -2.59257
H          7.30594         1.58369        -3.21137
O          1.78322         7.54475        -1.68335
O          2.00793         3.72781         2.01522
O          7.02669         5.08061         1.28189
H          6.38164         5.02816         2.02245
O         -3.05741         3.28212        -1.48467
O          7.38817        -2.01751        -1.66337
H          6.89147        -1.40708        -2.24721
O          8.34427        -2.23319         1.77918
O          2.72753        -3.27024        -0.81543
O         -0.48915         3.68330        -1.14826
H         -1.16098         3.80344        -1.85716
O        -10.24183         1.37295         1.57914
H         -9.57292         1.98113         1.98640
O         -5.38867        -7.56138         1.93153
H         -4.65623        -7.27172         2.52171
O         -3.77296        -0.15617        -1.42922
O          6.13450        -7.62824         1.79830
O         -8.07208         1.32525        -1.36907
O         -1.62786         5.41577         1.96001
H         -0.90934         5.00329         2.49737
O          5.49165        -3.19906        -1.07092
H          5.01635        -3.99822        -1.40661
O         -3.95541         7.16558        -2.06177
O          1.29469        -3.24674         2.60982
H          1.63798        -4.05402         3.06331
O         -4.14730        -3.15015         1.94338
O          0.16204       -11.42004         0.18383
H          0.27353       -11.37564         1.15551
O          4.46705        -5.55722        -0.74645
O         -2.14675         0.65784         2.03731
H         -1.48511         0.59811         2.76455
O         -2.24584        -6.06998        -1.39181
H         -3.15216        -6.01736        -1.78843
O          0.15543         8.64493         2.10611
H          0.03189         9.52935         2.52890
O         -1.69586         1.14936        -1.48199
H         -2.26700         1.50653        -2.19589
O          6.51176         5.90979        -2.24939
H          7.10495         6.28642        -2.93246
O          4.31092         5.49109         1.68075
O         -7.85243         2.80061         1.91513
O         -5.61452        -7.63459        -1.71605
H         -6.32550        -7.90790        -2.33206
O         -6.27565        -0.64272         1.94430
H         -5.39922        -0.35932         2.27794
O          7.38307        -5.29263         1.61891
O         -6.31852        -5.60995         2.29361
O          1.90715        -5.66089         2.18557
O          6.13244        -2.64084         2.36397
H          6.81867        -3.06318         2.92336
O         -2.47306        -6.98935         2.16259
H         -1.63358        -6.56734         2.44788
O         -9.47234         4.21214         2.68712
H         -9.58042         3.86512         3.60686
O        -11.19046        -3.60945         0.09816
H        -11.27348        -3.38999         1.05206
O          4.15292         1.29838        -1.59351
H          4.79288         1.61711        -2.27505
O          8.79945         3.71745        -2.74348
H          7.94736         4.01328        -3.13827
H         12.15981        -0.89716        -0.41188
H         12.29215         1.47586        -0.29061
H         10.33806         3.71428         0.16138
H          9.42694         5.80921        -1.14682
H          7.97389         7.88392        -1.77033
H          6.94912        10.46413        -1.10600
H          4.72323        11.26420        -0.90144
H          2.44269        11.21749        -0.53697
H         -0.04085        11.25246        -0.34620
H         -2.39080        11.15467        -0.96774
H         -5.00949        10.81714         0.33334
H         -7.10342         9.55981         0.09894
H         -8.45605         7.56651        -1.24148
H         -9.64080         5.50029        -0.86412
H        -10.87363         3.40941        -0.66477
H        -12.04223         1.24386        -0.93938
H        -12.05211        -1.20939        -0.97291
H        -10.04412        -2.96203        -1.48878
H         -9.58083        -5.60265        -0.38435
H         -8.26748        -7.60296        -0.70632
H         -7.00885        -9.97207        -0.34086
H         -4.86032       -11.15024        -0.06294
H         -2.35199       -11.08235        -0.31082
H          0.10710       -10.18320        -1.45030
H          2.67117       -11.01024        -0.57357
H          5.24626       -10.85869        -0.69970
H          7.28631        -9.59422        -0.62274
H          8.13299        -7.27268        -1.02955
H          9.78969        -5.28937        -0.80372
H         11.13123        -3.00971        -0.77766
