         576
 CSIRO Nanostructure Databank - Neutral Graphene Oxide Data Set
C          5.79496        19.04734         0.03758
C          5.77185        20.45328         0.01758
C          4.59754        21.20992        -0.38571
C          5.74365        23.36916        -0.09026
C          4.60191        22.57190        -0.48433
C          5.82060        24.73620        -0.25893
C          8.19193        14.73799         0.62408
C          8.17111        16.14714         0.65429
C          6.99506        16.89417         0.48124
C          8.17026        19.07271         0.56882
C          6.97803        18.33118         0.36557
C          8.14726        20.48677         0.61489
C          6.93381        21.17644         0.39823
C          8.10685        23.42519         0.92978
C          6.84957        22.64248         0.56425
C          8.20034        24.82905         0.46165
C          7.04204        25.48187        -0.04249
C          8.38147        27.49692        -0.49750
C          7.14381        26.85112        -0.41208
C          8.51161        28.99174        -0.75798
C         10.74762        10.37775         0.01799
C         10.70971        11.88929        -0.02104
C          9.41651        12.60553         0.31018
C         10.67835        14.68115         0.80096
C          9.40930        13.97226         0.55600
C         10.65034        16.05067         1.17291
C          9.50633        16.86776         0.55842
C         10.61128        19.20358         0.25893
C          9.45545        18.36110         0.94526
C         10.62955        20.57012         0.88974
C          9.36851        21.25680         0.88347
C         10.58080        23.33237         1.40268
C          9.34530        22.62940         1.08025
C         10.64671        24.86290         0.99417
C          9.45288        25.47619         0.36517
C         10.88473        27.27825        -0.62652
C          9.55420        26.75804        -0.21952
C         11.02587        28.70452        -1.03965
C          9.76673        29.35980        -1.57416
C         11.16484        31.48623        -1.79053
C          9.94240        30.83971        -1.79953
C         11.28811        32.85322        -2.14933
C         13.26645         6.19734        -0.71805
C         13.18525         7.57144        -0.27373
C         12.00410         8.26259        -0.26180
C         13.20941        10.35329         0.30936
C         11.93581         9.68055         0.06084
C         13.17271        11.75775         0.74332
C         11.86829        12.49205         0.74085
C         13.12602        14.63954         0.94656
C         11.89006        13.96172         0.84944
C         13.10918        16.01772         1.25353
C         11.87493        16.60119         1.64609
C         13.12195        19.11300         1.00254
C         12.01813        18.59687         0.12747
C         13.05392        20.44394         1.37925
C         11.82351        21.20030         1.23183
C         13.06359        23.31071         1.58112
C         11.84472        22.61064         1.48808
C         13.10920        24.67575         1.14543
C         11.98090        25.36029         0.71881
C         13.40275        27.24494        -0.17418
C         12.10531        26.54786        -0.15502
C         13.49393        28.51556        -0.93676
C         12.24563        29.30125        -1.12978
C         13.68888        31.24900        -2.02299
C         12.40929        30.80798        -1.24983
C         13.77663        32.75703        -2.04426
C         12.54377        33.53591        -2.15021
C         13.83228        35.74297        -2.01004
C         12.58406        34.92289        -2.23141
C         13.97721        36.82475        -3.09548
C         15.73087         6.24593        -0.69479
C         14.46042         5.56512        -0.88583
C         15.72864         7.60097        -0.24468
C         14.44438         8.18839         0.28670
C         15.67517        10.40317         0.42033
C         14.42246         9.69562         0.27149
C         15.66562        11.82857         0.63674
C         14.43109        12.51847         0.76880
C         15.61887        14.63942         0.83709
C         14.39441        13.92461         0.83551
C         15.58088        16.10397         0.67240
C         14.28376        16.84993         0.87429
C         15.53334        18.95518         1.40502
C         14.33234        18.32179         1.14087
C         15.53850        20.31975         1.94919
C         14.21159        21.12794         1.97961
C         15.52836        23.24681         2.02723
C         14.30743        22.59808         1.87295
C         15.56622        24.76984         1.75544
C         14.47850        25.13956         0.71898
C         15.82209        27.09221        -0.07251
C         14.51904        26.59093         0.26990
C         16.00312        28.52832        -0.43775
C         14.84063        29.17314        -1.13150
C         16.16537        31.28309        -1.39386
C         14.94392        30.61409        -1.44746
C         16.24647        32.67990        -1.76720
C         14.99314        33.40100        -1.99538
C         16.28015        35.42567        -1.86115
C         15.05673        34.85342        -1.95163
C         16.40883        37.33512        -2.88569
C         15.08271        37.51573        -3.47151
C         18.18028         6.29518        -0.82896
C         16.93962         5.61474        -0.98204
C         18.17825         7.67310        -0.41475
C         16.92636         8.31826        -0.12653
C         18.14117        10.44137         0.33229
C         16.90709         9.72631         0.24442
C         18.14478        11.84549         0.60572
C         16.89017        12.55146         0.72395
C         18.09490        14.73681         0.97960
C         16.85798        13.97082         0.83270
C         18.10535        16.10648         1.03461
C         16.86969        16.86032         0.74355
C         18.11109        19.02234         1.36695
C         16.83211        18.32173         1.08595
C         18.01115        20.49214         1.46198
C         16.76729        21.09899         1.95307
C         18.04962        23.07633         2.49260
C         16.75646        22.47025         2.19352
C         18.07075        25.04727         1.83896
C         16.89226        25.23575         1.15814
C         18.78760        27.31636         0.14281
C         16.85888        26.20260         0.09713
C         18.59088        28.65777         0.01556
C         17.31539        29.27897        -0.40391
C         18.62754        31.30066        -1.04137
C         17.40711        30.63963        -0.99505
C         18.71288        32.66234        -1.49191
C         17.48517        33.32264        -1.81194
C         18.80222        35.55181        -2.02086
C         17.52732        34.73340        -2.33323
C         18.85682        36.81040        -2.90494
C         17.63667        37.42261        -3.46723
C         20.63206         6.31706        -0.95612
C         19.40376         5.64508        -1.09897
C         20.63649         7.68931        -0.53514
C         19.40603         8.37061        -0.28167
C         20.59063        10.49888         0.14825
C         19.38992         9.77296         0.10152
C         20.60804        11.90292         0.46039
C         19.36578        12.54626         0.72125
C         20.64811        14.73703         1.13733
C         19.35933        13.96920         1.12123
C         20.57989        16.22552         0.84560
C         19.34379        16.87013         1.49011
C         20.59042        19.10431         1.15773
C         19.31651        18.37992         1.27258
C         20.57100        20.59909         1.16804
C         19.28315        21.28341         1.49279
C         20.57952        23.32812         2.35895
C         19.30853        22.58753         2.18007
C         20.48761        24.82335         2.42803
C         19.43459        25.49428         1.65884
C         20.80976        27.57296         1.52474
C         19.70056        26.72827         1.08101
C         20.99435        28.77999         0.67371
C         19.71931        29.57393         0.40528
C         21.13748        31.43071        -0.48763
C         19.92182        30.55477        -0.75372
C         21.18239        32.62869        -1.23209
C         19.97371        33.30874        -1.63075
C         21.26570        35.27392        -2.42359
C         20.06829        34.69173        -2.11060
C         21.37738        36.66613        -3.00252
C         20.05496        37.33501        -3.24276
C         23.10983         6.33187        -1.12089
C         21.87399         5.70909        -1.30320
C         23.12856         7.68855        -0.58473
C         21.88995         8.35721        -0.43034
C         23.12722        10.56479        -0.13507
C         21.83347         9.82198        -0.27343
C         23.10571        11.91396         0.47147
C         21.83270        12.64707         0.49680
C         23.09440        14.77939         0.70977
C         21.90653        14.04771         0.76691
C         23.15105        16.21231         1.10454
C         21.85129        16.95674         1.24250
C         23.07173        19.14081         0.86166
C         21.79499        18.43576         1.10572
C         23.12024        20.65675         1.02881
C         21.83510        21.39605         1.34922
C         23.15776        23.39277         2.11236
C         21.80865        22.69311         2.12110
C         23.45952        24.61265         2.91082
C         21.52374        25.61552         2.86179
C         23.31261        27.49402         2.11229
C         21.85307        27.00616         2.43685
C         23.24674        29.01385         1.78923
C         22.27595        29.51975         0.76625
C         23.16719        31.80534         0.95746
C         22.19768        30.96944         0.39349
C         23.24495        33.22272         0.65956
C         22.47477        33.16153        -1.72375
C         23.56624        35.49525        -1.34896
C         22.59937        34.61040        -2.18536
C         23.47410        36.94704        -1.56705
C         22.34569        37.47907        -2.18057
C         25.56491         5.82466        -1.23001
C         24.28152         5.66196        -1.69761
C         25.64863         7.78877        -0.31431
C         24.36526         8.43470        -0.34704
C         25.62521        10.54521        -0.08140
C         24.38635         9.81684        -0.14481
C         25.64277        11.93092         0.11985
C         24.40853        12.65380         0.48813
C         25.64017        14.80714         0.78284
C         24.36275        14.14354         0.20873
C         25.59093        16.30198         0.55317
C         24.40421        16.98972         0.83585
C         25.55642        19.22125         0.58798
C         24.34548        18.40214         0.82783
C         25.60294        20.63325         1.06600
C         24.42846        21.31219         1.25012
C         25.75648        23.50908         1.53889
C         24.40067        22.76922         1.50324
C         25.84678        24.62450         2.60903
C         24.55729        25.40376         2.78364
C         25.84400        27.56696         2.86220
C         24.46854        26.91507         3.09985
C         25.94520        28.98744         2.98328
C         24.05146        29.95675         2.34249
C         25.55772        31.81402         1.60876
C         24.30791        31.24410         1.68776
C         25.73641        32.96971         0.62799
C         24.46793        33.70496         0.23290
C         25.90763        35.49826        -0.58105
C         24.59561        34.89353        -0.58900
C         25.76998        37.68006        -0.90592
C         24.38853        37.93149        -0.99894
C         28.01077         6.30072        -1.51842
C         26.85849         5.53502        -1.77867
C         28.04148         7.70720        -1.08647
C         26.84736         8.42553        -0.63361
C         28.02230        10.58595        -0.58595
C         26.84640         9.86120        -0.45642
C         28.09452        11.99207        -0.30988
C         26.85564        12.70381         0.02726
C         28.09332        14.83666        -0.18572
C         26.84836        14.07658         0.21981
C         28.05200        16.28467         0.37234
C         26.77611        17.01621        -0.08005
C         28.12163        19.20931         0.56571
C         26.83634        18.52715         0.23786
C         28.13570        20.55049         0.93309
C         26.90604        21.29413         1.21670
C         28.27233        23.23734         2.06470
C         26.96418        22.60202         1.63529
C         28.26142        24.76822         2.02864
C         27.06476        25.45057         2.31502
C         28.28191        27.60472         2.40201
C         27.00422        26.86471         2.48604
C         28.26290        29.14528         2.37068
C         26.95667        29.79038         2.48413
C         28.10398        31.95867         1.88728
C         26.81350        31.31346         2.40156
C         28.06290        33.39843         1.67608
C         26.74836        33.99995         1.12874
C         27.94480        36.23773         0.82138
C         26.87488        35.24276         0.36026
C         28.13477        37.49971        -0.10990
C         26.82477        38.26214        -0.22453
C         30.47136         6.39213        -1.85723
C         29.27080         5.70249        -1.86349
C         30.46603         7.83116        -1.69972
C         29.20943         8.44680        -1.33150
C         30.45950        10.70826        -1.28272
C         29.18595         9.92161        -1.18901
C         30.57521        12.01113        -0.58598
C         29.32429        12.64267        -0.23748
C         30.64702        14.72744        -0.20588
C         29.33564        14.06585         0.28714
C         30.59955        16.25392        -0.08349
C         29.32598        17.03894         0.03956
C         30.56921        19.15794         0.34809
C         29.37293        18.49161         0.38873
C         30.59305        20.66600         0.26210
C         29.39243        21.29571         0.93729
C         30.74948        23.29811         1.47640
C         29.45374        22.59051         1.37075
C         30.75475        24.78005         1.72071
C         29.47254        25.48901         1.86604
C         30.68032        27.63539         1.73780
C         29.49370        26.90593         1.92263
C         30.60195        29.09856         1.33649
C         29.42146        29.87420         1.86165
C         30.56883        32.02595         1.43927
C         29.33062        31.26977         1.69278
C         30.52864        33.41741         1.34508
C         29.29053        34.15439         1.34443
C         30.48488        36.24210         0.79216
C         29.26021        35.50406         1.01504
C         30.44298        37.71030         0.71005
C         29.27046        38.33689         0.43360
C         32.91207         6.40424        -2.00339
C         31.73764         5.71825        -2.02721
C         32.94231         7.85362        -1.93051
C         31.66695         8.54430        -1.86213
C         33.00152        10.75497        -1.73134
C         31.70069        10.01629        -1.74709
C         33.08053        11.93862        -0.79785
C         31.81501        12.60797        -0.39244
C         33.19900        14.70769         0.26750
C         31.86729        13.94090         0.36800
C         33.15276        16.21164         0.36551
C         31.86257        16.96054         0.26756
C         33.10926        19.17881         0.00784
C         31.82311        18.43800         0.01810
C         33.12645        20.61925         0.33729
C         31.93033        21.29425         0.62250
C         33.21082        23.36279         0.95294
C         31.98533        22.66022         0.96312
C         33.23697        24.88880         0.93633
C         31.97307        25.55829         1.45428
C         33.17838        27.72685         1.56505
C         31.92103        26.93602         1.55999
C         33.09689        29.18668         1.33802
C         31.90392        29.86210         1.39582
C         33.02001        32.02476         1.10019
C         31.84372        31.32338         1.33278
C         33.08735        33.48556         1.16384
C         31.76715        34.21090         1.27253
C         32.94088        36.36555         0.43888
C         31.70219        35.61134         0.85527
C         32.87877        37.77485         0.99192
C         31.68826        38.40637         1.05211
C         34.15511         8.52085        -1.86857
C         35.55277        10.71327        -1.77059
C         34.27854        10.00252        -2.14603
C         35.59977        12.05524        -1.35704
C         34.41694        12.61675        -0.63327
C         35.64326        14.89654        -0.55623
C         34.47724        14.05130        -0.15793
C         35.63584        16.26240        -0.39810
C         34.45701        16.95772         0.19394
C         35.57846        19.21425        -0.34618
C         34.40906        18.44922         0.13684
C         35.56968        20.59028        -0.12383
C         34.37385        21.28396         0.35889
C         35.71363        23.36364         0.66200
C         34.40407        22.66376         0.67563
C         35.78158        24.82264         1.03607
C         34.49749        25.46965         1.60618
C         35.66631        27.76242         0.92207
C         34.50895        27.02103         1.51456
C         35.59237        29.12811         0.76533
C         34.39495        29.88005         1.21856
C         35.35544        32.02496         0.10313
C         34.33069        31.35581         0.99238
C         35.45225        33.50127         0.36650
C         34.29631        34.22465         0.68953
C         34.23746        35.62272         0.62002
C         36.75245        12.83138        -1.49885
C         37.99905        15.03339        -1.41310
C         36.93743        14.15782        -0.80905
C         37.94756        16.40200        -1.36547
C         36.75868        17.08178        -0.84496
C         37.83331        19.25852        -1.38981
C         36.70189        18.47626        -0.85294
C         37.87616        20.73185        -1.11180
C         36.74671        21.38084        -0.40236
C         37.99369        23.51544        -0.45877
C         36.80264        22.71525        -0.10129
C         38.02166        24.97641        -0.18101
C         36.86920        25.65686         0.47033
C         38.01291        27.78884        -0.00165
C         36.84212        27.03094         0.47577
C         37.92204        29.20244        -0.06629
C         36.72919        29.90135         0.25802
C         36.65635        31.28184         0.07771
C         39.09049        17.19606        -1.79884
C         40.19980        19.40245        -2.18256
C         39.09333        18.56522        -1.75174
C         40.25551        20.74794        -1.90036
C         39.25553        21.32205        -0.93887
C         40.34970        23.65478        -1.29725
C         39.32799        22.80715        -0.58984
C         40.35198        25.00066        -1.08640
C         39.37666        25.66171        -0.12801
C         39.19693        27.14214        -0.34112
C         41.27748        21.63382        -2.40808
C         41.30878        22.97548        -2.14962
O         14.74309        20.49823         3.17259
O         32.15503        10.87043        -2.90358
O         12.25611        17.84388        -0.80313
O          7.09401        23.12445         1.93948
O         32.41827        18.86188        -1.26857
O         27.05492        34.08629         2.52721
O         21.98172        28.62047        -0.39687
O         26.08335        19.23229        -0.81861
O         16.95520        17.84410        -0.32976
O         21.10243        21.41103         0.06833
O         34.76423        30.84364         2.28503
O         22.44670        10.54096        -1.43690
O         17.94841        24.34984         3.07548
O         29.93788        16.81910        -1.26428
O         28.59717        28.37698         3.60232
O         33.94088        11.66577         0.37770
O         24.80383        29.65793         3.47589
O         34.72903        17.76588         1.39237
O         11.57434        26.32057        -1.52577
O         18.03335        26.41735        -0.61457
O         32.63291        34.01250         2.45978
O         23.84538        12.12970         1.73231
O         16.37344        36.79788        -1.57437
O         14.75298        16.49332        -0.46993
O         23.03402        20.05810        -0.29889
O         36.25815        23.79954         1.97305
O         22.52865        16.46718         2.43569
O         29.52539        10.68235        -2.42233
O         20.86354        27.95230         2.95956
O         25.66222         6.44614         0.03745
O         18.45912        21.24668         0.26609
O         20.08240        14.26289         2.39837
O         22.42401        25.04819         3.74551
O         26.10901        36.46184        -1.57154
O         30.96066        23.79223         2.86455
O         23.49715        23.56211         0.66757
O         16.36587        29.30724         0.76236
O         39.70605        21.00452         0.45561
O         10.41897        24.42130         2.35479
O         32.40791        16.61533         1.57095
O         34.15398        14.19210         1.26950
O         12.30342        11.85132         1.97002
O         23.43510        32.41161        -1.92973
O         37.49903        20.26477        -2.43600
O         14.26050        28.36391        -2.21961
O         39.81112        22.44716         0.77213
O         34.02225        27.55132         2.78164
O         37.70761        24.48205        -1.53354
O         32.84117        36.51612        -1.03167
H         32.01274        37.01196        -1.21436
O         23.63868        26.86039         0.85917
H         23.12174        27.29329         0.13414
O          9.78961        16.85618        -0.87364
H          9.97962        15.93061        -1.13799
O         13.56623        30.77543        -3.39020
H         13.75041        29.80318        -3.37244
O         22.14245        34.01204         0.65566
H         21.37377        33.53464         1.02871
O         30.78717        14.49576        -1.62502
H         29.94757        14.80656        -2.05206
O         29.21802        14.01455         1.72364
H         30.04897        13.63872         2.10690
O         26.61544        16.90190        -1.51182
H         26.13441        17.71683        -1.80525
O         34.37047        10.02757        -3.61417
H         33.46021        10.25882        -3.93551
O         27.94871        16.29301         1.81099
H         28.33840        15.45085         2.16252
O         33.34825        25.25740        -0.47186
H         32.58537        24.88293        -0.96098
O         13.67607        36.41648        -0.72870
H         12.95496        37.07343        -0.81593
O         28.61513        37.04542        -1.39442
H         27.83922        36.69992        -1.89802
O         28.45035        22.89383         3.49214
H         29.36730        23.19783         3.72270
O         39.88506        25.47621         1.22694
H         40.77010        25.89197         1.28455
O         25.64605        14.55932         2.21164
H         24.83090        14.94105         2.60185
O         10.99045        12.23919        -1.43085
H         10.25734        11.88470        -1.97703
O         19.42053        16.75700         2.92987
H         19.65875        15.81744         3.14355
O         14.43302         7.82803         1.71885
H         15.20629         8.26341         2.13681
O         21.97493        36.59854        -4.33641
H         22.73459        35.96940        -4.29418
O         18.76138        35.96403        -0.63383
H         17.99573        36.57875        -0.53874
O         11.95133        17.65821         2.48754
H         11.04578        17.97233         2.74769
O         34.77286        31.89233        -1.25971
H         35.36701        32.36181        -1.88328
O         26.33534        32.40603        -0.58004
H         25.60460        32.04885        -1.13317
O         30.44861        20.95633        -1.17009
H         31.05778        20.34143        -1.64602
O         20.45213        16.32447        -0.59188
H         20.22621        17.24914        -0.83141
O         25.92240        24.14859         0.24868
H         25.01897        24.35475        -0.09040
O         10.19101        19.43320        -1.10585
H         10.46229        18.62917        -1.61127
O         24.44295        14.31553        -1.23065
H         23.61225        13.98796        -1.63525
O          9.53827        28.76147        -2.88360
H         10.35291        28.87078        -3.41808
O         26.62812        31.78972         3.75777
H         25.89978        31.25867         4.15309
O         31.72241        13.65516         1.77398
H         32.63432        13.50446         2.12353
O         20.19014        29.81534        -1.96890
H         21.04661        29.33894        -1.84975
O         14.81836        24.36118        -0.46459
H         14.20266        24.61068        -1.18634
O         15.30657        25.48295         2.97291
H         16.02506        25.26134         3.60520
O         28.14618        14.82749        -1.62572
H         27.46001        15.45320        -1.96887
O         37.43945        13.79474         0.53752
H         36.68119        13.44079         1.05209
O          8.61615        29.65466         0.50939
H          7.86675        29.37165         1.07235
O         24.03544        27.16274         4.43316
H         24.64116        26.70373         5.05048
O         17.40878        34.63691        -3.78960
H         18.05507        33.96877        -4.10172
O         27.48213        36.74605         2.09151
H         27.35431        35.96738         2.68694
O         19.42781        30.35370         1.57986
H         19.19415        29.74541         2.31316
O          9.49705        18.45662         2.39523
H          9.20806        19.35728         2.65696
O         34.37585        25.09757         2.97695
H         35.13122        25.46466         3.47958
O         30.28387        29.00183        -0.11733
H         30.28931        29.91530        -0.47793
O         23.33434        34.50143        -3.44389
H         23.92253        33.71379        -3.34478
O         12.60534        31.27662         0.11100
H         11.76053        31.17335         0.59754
O         26.00551        23.99749         3.91493
H         26.92743        23.63217         3.99040
H          4.87739        18.48943        -0.20240
H          3.69901        20.64726        -0.67938
H          3.71163        23.09492        -0.86462
H          4.96534        25.27141        -0.69965
H          7.23396        14.19770         0.55849
H          6.03628        16.35965         0.39117
H          6.22933        27.39438        -0.69690
H          7.59865        29.36298        -1.30427
H          9.81837         9.82874        -0.20712
H          8.46016        12.07767         0.16304
H          9.06068        31.39107        -2.16480
H         10.37598        33.42465        -2.38227
H         12.32816         5.66962        -0.94778
H         11.08048         7.76384        -0.59659
H         11.62822        35.47106        -2.28189
H         13.04890        37.04793        -3.64968
H         14.48555         4.52087        -1.23110
H         14.99834        38.20860        -4.32544
H         16.94227         4.56957        -1.32569
H         17.73233        37.89704        -4.45585
H         19.39439         4.59605        -1.43016
H         20.09139        38.23808        -3.87210
H         21.85025         4.69829        -1.73765
H         22.25789        38.57585        -2.23805
H         24.10501         5.04056        -2.58879
H         23.99008        38.93054        -0.76788
H         26.97670         4.64681        -2.41995
H         26.66846        39.16558         0.38145
H         29.28091         4.62500        -2.08915
H         29.19613        39.43479         0.44016
H         33.86973         5.86970        -2.08446
H         31.73583         4.62303        -2.12897
H         33.81309        38.30521         1.22780
H         31.62589        39.46438         1.34914
H         35.07932         7.92262        -1.90335
H         36.47176        10.28280        -2.19942
H         36.35976        34.04274         0.05490
H         35.15198        36.16595         0.33170
H         37.63556        12.37334        -1.97023
H         38.90845        14.53995        -1.78911
H         38.79447        29.77458        -0.41617
H         37.54616        31.80992        -0.30111
H         39.99336        16.65558        -2.12183
H         41.00303        18.93859        -2.77647
H         41.11529        25.62803        -1.57506
H         40.06922        27.74640        -0.63744
H         42.04182        21.19999        -3.07063
H         42.09673        23.59013        -2.61069
