         410
 CSIRO Nanostructure Databank - Neutral Graphene Oxide Data Set
C         27.80055        27.54145         0.37737
C         27.82725        29.04791         0.36903
C         26.58945        29.71918         0.90558
C         27.85393        31.80400         1.59292
C         26.60498        30.98348         1.34621
C         27.91623        33.13034         0.86708
C         26.77483        33.77020         0.40995
C         27.91565        35.91230         0.19792
C         26.79157        35.12818         0.00275
C         27.95253        37.34101        -0.08238
C         26.74216        38.08157        -0.08327
C         27.87599        40.16039        -0.65010
C         26.71509        39.45711        -0.29491
C         27.90073        41.57112        -0.90853
C         26.68668        42.29742        -1.05217
C         27.88160        44.40448        -1.12682
C         26.67219        43.67131        -1.18828
C         27.87612        45.85749        -1.16376
C         30.26784        27.49738         0.40469
C         28.95528        26.84809         0.32557
C         30.34002        28.83496         0.72826
C         29.08782        29.56062         1.03392
C         30.43030        31.71617         1.24610
C         29.14150        30.99784         1.44008
C         30.40308        33.14882         1.05927
C         29.16975        33.81917         0.88737
C         30.47789        36.00974         0.43043
C         29.13346        35.27361         0.69762
C         30.44992        37.34568        -0.22176
C         29.17745        37.99416        -0.36210
C         30.41288        40.14699        -1.07228
C         29.11306        39.38811        -0.84526
C         30.42047        41.60866        -0.89113
C         29.14645        42.28848        -0.94236
C         30.32515        44.48296        -0.75413
C         29.09554        43.70503        -0.99279
C         30.33481        45.91505        -1.19626
C         29.01590        46.58720        -1.19137
C         32.75419        24.65478        -0.18790
C         31.53523        25.37490        -0.03607
C         32.73376        27.51904         0.01189
C         31.48966        26.74194         0.15746
C         32.84157        28.86718         0.56804
C         31.62351        29.48083         1.20992
C         32.86479        31.68518         0.95201
C         31.60588        30.99593         1.08758
C         32.88799        33.10390         0.86948
C         31.65241        33.84145         0.82115
C         32.92825        35.79931        -0.04992
C         31.66642        35.17835         0.37921
C         32.95044        37.27557        -0.43210
C         31.65485        37.98354        -0.51494
C         32.98881        40.16397        -0.79610
C         31.69898        39.38948        -0.95198
C         32.91335        41.63452        -0.63011
C         31.64087        42.28913        -0.70647
C         32.89513        44.51251        -0.62679
C         31.62148        43.75989        -0.54902
C         32.88210        45.90789        -0.70864
C         31.65380        46.64902        -1.10416
C         32.82098        48.76563        -0.63723
C         31.68300        48.11322        -0.97650
C         35.29116        23.12624        -0.23517
C         35.25799        24.53856        -0.19373
C         33.99570        25.26716        -0.19542
C         35.30740        27.42788         0.07127
C         34.04610        26.73810        -0.22182
C         35.31276        28.81441         0.35061
C         34.06497        29.53554         0.61666
C         35.34694        31.66107         1.09036
C         34.07658        30.94459         0.90223
C         35.39278        33.13275         0.99499
C         34.13967        33.82831         0.82551
C         35.32959        36.00573         0.69339
C         34.14415        35.18542         0.49375
C         35.38675        37.40145         0.22760
C         34.19944        38.05545        -0.19386
C         35.39421        40.19906        -0.13575
C         34.20298        39.45508        -0.32774
C         35.36545        41.63988        -0.19802
C         34.10380        42.34379        -0.37507
C         35.30906        44.51751        -0.26020
C         34.10916        43.79531        -0.39973
C         35.30978        45.93070        -0.31610
C         34.08775        46.64720        -0.50544
C         35.28033        48.77926        -0.16639
C         34.07234        48.07127        -0.43248
C         35.30594        50.18924         0.03851
C         37.73602        23.07607        -0.30875
C         36.48897        22.42193        -0.27906
C         37.73541        24.52320        -0.24873
C         36.49380        25.24553        -0.17505
C         37.74446        27.39250         0.00973
C         36.51553        26.68384        -0.01549
C         37.74868        28.80009         0.12913
C         36.56094        29.49271         0.39576
C         37.86558        31.68327         0.56123
C         36.63763        30.90559         0.82821
C         37.86658        33.09813         0.72297
C         36.62015        33.79821         0.91628
C         37.90015        36.00104         0.67060
C         36.65954        35.26824         0.96408
C         37.87656        37.40619         0.49874
C         36.61583        38.10282         0.31229
C         37.85615        40.23943         0.12871
C         36.62341        39.51377         0.10519
C         37.82169        41.65521         0.01732
C         36.57203        42.34101        -0.06220
C         37.82214        44.51920        -0.26337
C         36.56596        43.82373         0.19084
C         37.79317        45.95518        -0.31797
C         36.54559        46.65573        -0.22215
C         37.75694        48.79062         0.01499
C         36.52738        48.06956        -0.12937
C         37.74098        50.19516         0.24664
C         36.48416        50.86307         0.26595
C         40.30752        20.25550        -0.60903
C         39.06329        20.93783        -0.57563
C         40.22968        23.08302        -0.53068
C         38.97247        22.32145        -0.45005
C         40.20662        24.48177        -0.03602
C         38.95394        25.24386        -0.19497
C         40.21448        27.35912        -0.00960
C         39.00024        26.66552        -0.07330
C         40.23977        28.80570         0.42089
C         39.03537        29.54226        -0.15248
C         40.27902        31.67846         0.24633
C         39.04261        30.99321         0.25808
C         40.28876        33.07828         0.44324
C         39.09696        33.81669         0.61165
C         40.32675        36.00397         0.47171
C         39.12132        35.28107         0.60418
C         40.35820        37.43225         0.43559
C         39.11099        38.13153         0.40569
C         40.34152        40.27900         0.21975
C         39.10847        39.55512         0.26097
C         40.29788        41.69921        -0.02641
C         39.05563        42.37956        -0.08423
C         40.24701        44.48818        -0.73679
C         39.00778        43.80036        -0.34394
C         40.23969        46.03000        -0.74396
C         38.99136        46.70117        -0.38384
C         40.23923        48.80651        -0.02593
C         38.99816        48.09574        -0.12177
C         40.21969        50.19657         0.31021
C         38.98103        50.89448         0.45725
C         40.19073        52.92795         1.06783
C         39.00478        52.26822         0.82430
C         42.79213        20.22400        -0.41543
C         41.53558        20.90533        -0.53411
C         42.82507        23.07423        -0.20671
C         41.57485        22.37324        -0.57986
C         42.81358        24.49357        -0.03144
C         41.50564        25.18732         0.12111
C         42.78177        27.38956        -0.00110
C         41.49165        26.65223        -0.11406
C         42.75663        28.86121         0.07762
C         41.53245        29.54165         0.11766
C         42.75324        31.65678        -0.13885
C         41.52348        30.94904         0.08784
C         42.77003        33.05141        -0.05383
C         41.58896        33.76048         0.45497
C         42.80874        35.96216         0.01547
C         41.59230        35.25840         0.44727
C         42.83535        37.34397         0.33173
C         41.61325        38.15386         0.46102
C         42.79500        40.43019         0.37379
C         41.59871        39.58663         0.39620
C         42.76494        41.76460        -0.02211
C         41.52572        42.45057        -0.21330
C         42.75827        44.57482        -0.74925
C         41.53266        43.81748        -0.53727
C         42.70908        46.03542        -0.80632
C         41.52534        46.73512        -0.59638
C         42.69229        48.87387        -0.11222
C         41.48728        48.14221        -0.24457
C         42.69679        50.22042         0.33775
C         41.44871        50.89167         0.52803
C         42.66478        52.91865         1.20724
C         41.43277        52.25591         0.93481
C         43.97386        20.90235        -0.26805
C         45.26020        23.02725         0.14805
C         44.03694        22.34234        -0.12181
C         45.21630        24.46493         0.46620
C         43.97652        25.20175         0.22369
C         45.26876        27.40083         0.26607
C         43.97145        26.67301         0.59358
C         45.23888        28.80189        -0.02282
C         43.99909        29.53425        -0.08289
C         45.20824        31.60841        -0.64019
C         43.99341        30.93409        -0.31839
C         45.13143        33.03211        -1.06573
C         43.89203        33.80434        -0.62841
C         45.19443        35.96130        -0.56276
C         43.97199        35.27002        -0.38558
C         45.30724        37.27546        -0.02557
C         44.13924        37.80522         0.57833
C         45.28088        40.34068         0.09461
C         44.12503        39.92248         0.67989
C         45.24910        41.67764        -0.53553
C         44.06615        42.54149        -0.08145
C         45.25716        44.60350        -1.02345
C         43.97861        43.90308        -0.73768
C         45.30061        46.10461        -0.95202
C         43.97401        46.81401        -0.92610
C         45.26967        48.92930        -0.10930
C         43.95351        48.26547        -0.54685
C         45.16520        50.18765         0.64754
C         43.92380        50.88985         0.67574
C         43.86038        52.24961         1.10986
C         47.71768        23.06738         0.25663
C         46.54042        22.39264         0.08969
C         47.78585        24.49768         0.60379
C         46.49259        25.26078         0.68686
C         47.71854        27.44373         0.22095
C         46.48514        26.72130         0.37349
C         47.70907        28.84207        -0.01734
C         46.45668        29.52529        -0.18920
C         47.71259        31.59393        -0.81582
C         46.42484        30.90889        -0.54551
C         47.71353        33.06285        -1.16488
C         46.38896        33.79621        -1.52897
C         47.70159        36.03057        -1.00905
C         46.38656        35.30754        -1.16289
C         47.72892        37.42886        -0.46808
C         46.54448        38.05036        -0.06403
C         47.82072        40.28371        -0.08469
C         46.54088        39.53070         0.19551
C         47.82000        41.71407        -0.46277
C         46.54982        42.37517        -0.79316
C         47.80337        44.59644        -0.62015
C         46.55648        43.86866        -0.97378
C         47.75324        46.01630        -0.34522
C         46.54362        46.75998        -0.44559
C         47.64000        48.71190         0.59034
C         46.49977        48.10832        -0.00417
C         47.52386        49.98639         1.21848
C         46.32680        50.67384         1.28482
C         50.26478        24.71009        -0.20941
C         49.05526        25.28142         0.44983
C         50.17361        27.47491         0.40527
C         48.98100        26.77297         0.36555
C         50.19019        28.89633         0.19637
C         48.95250        29.57618        -0.05321
C         50.18291        31.69058        -0.42290
C         48.96679        30.96122        -0.34101
C         50.19781        33.10755        -0.68567
C         48.95509        33.83625        -0.88351
C         50.21987        35.93486        -1.11114
C         48.94990        35.21556        -0.95312
C         50.20501        37.46815        -1.00814
C         48.96888        38.15247        -0.59060
C         50.26689        40.26459        -0.50519
C         49.03870        39.53339        -0.42076
C         50.27251        41.68532        -0.42007
C         49.01096        42.41790        -0.52449
C         50.25983        44.61268        -0.41238
C         48.98737        43.87451        -0.55092
C         50.20957        45.99272         0.10113
C         48.95588        46.67162         0.11024
C         50.10334        48.64425         0.98709
C         48.90027        48.01574         0.57433
C         51.40590        25.40751        -0.14555
C         52.71520        27.44360         0.66974
C         51.41922        26.64784         0.72311
C         52.68416        28.93254         0.41505
C         51.40510        29.62065         0.12885
C         52.67467        31.69674        -0.33661
C         51.42241        30.99735        -0.19762
C         52.68216        33.09162        -0.56725
C         51.43821        33.80493        -0.68037
C         52.69822        35.92752        -0.89516
C         51.48414        35.22319        -0.88081
C         52.69887        37.39401        -1.05760
C         51.48238        38.15907        -0.82325
C         52.74244        40.24365        -0.33400
C         51.50899        39.54405        -0.59345
C         52.70815        41.64564        -0.06782
C         51.50010        42.36087        -0.24648
C         52.69945        44.50148         0.38168
C         51.54742        43.83614        -0.24987
C         52.64914        45.87699         0.67637
C         51.39127        46.61909         0.55080
C         51.30560        47.97199         0.97516
C         55.12695        27.41809         0.16508
C         53.98735        26.73651         0.43129
C         55.13618        28.85320        -0.02910
C         53.93548        29.58672        -0.00053
C         55.15718        31.65024        -0.49681
C         53.92214        30.97644        -0.28537
C         55.16212        33.08805        -0.61178
C         53.93085        33.80160        -0.65562
C         55.18065        35.93187        -0.58115
C         53.94267        35.23128        -0.74373
C         55.20698        37.35057        -0.33118
C         54.06451        38.16456        -0.71239
C         55.11932        40.16093         0.33038
C         53.96843        39.54473        -0.23770
C         55.08341        41.58121         0.62720
C         53.90303        42.32019         0.37141
C         55.02225        44.37678         1.16810
C         53.86757        43.73137         0.64443
C         54.97551        45.77355         1.42188
C         53.82476        46.49569         1.19334
C         56.34676        29.52676        -0.32956
C         56.35743        30.89138        -0.53037
C         56.38147        33.81339        -0.62315
C         56.38795        35.18918        -0.55661
C         56.27425        37.99093         0.31972
C         56.25723        39.35919         0.58719
C         56.22335        42.26053         1.15232
C         56.19678        43.61023         1.41395
O         33.32426        27.37026        -1.32827
O         32.56385        39.65829        -2.11318
O         48.69001        24.74254         1.75593
O         50.16285        36.78408        -2.31344
O         45.96820        44.20933        -2.26807
O         30.82540        44.25203         0.61467
O         41.85786        34.51461         1.71175
O         29.64781        39.63780        -2.20980
O         33.06633        36.21844        -1.46329
O         40.79490        24.71038         1.31325
O         44.24360        38.81905         1.53112
O         29.08730        29.92581         2.46773
O         44.70948        46.64183        -2.18139
O         29.82617        36.02624         1.74302
O         42.32890        26.94505        -1.32079
O         53.58619        37.92998        -2.06520
O         40.14891        45.24981        -1.98100
O         44.06711        33.32904        -2.01571
O         46.96954        36.05172        -2.28944
O         52.77143        28.38798         1.79776
O         45.72767        24.85032         1.86585
O         45.77606        41.71899        -1.87931
O         44.72220        49.08336        -1.46706
O         47.37504        40.00376         1.31478
O         36.14896        31.10296         2.19693
O         51.17465        44.42408        -1.55322
O         40.94607        22.94408        -1.79909
O         31.11774        46.16488        -2.40970
O         47.93630        32.04748        -2.20081
O         35.88673        35.85458         2.04985
O         44.40958        42.87558         1.32168
H         44.35937        42.04718         1.84817
O         40.08734        28.80629         1.86772
H         40.81546        28.27991         2.26067
O         51.28933        26.18628         2.09052
H         51.52727        26.94634         2.66685
O         36.57129        43.95700         1.66824
H         35.74500        43.54577         2.00110
O         31.71175        29.15765         2.63888
H         30.84290        29.42237         3.03097
O         39.20515        29.52291        -1.59834
H         38.42336        29.94423        -2.01156
O         27.79064        32.18119         2.99883
H         28.03186        31.37871         3.51341
O         27.97102        29.46988        -1.02673
H         27.26243        29.03836        -1.54823
O         43.79554        26.75631         2.03780
H         44.47709        26.15370         2.43149
O         46.30396        33.73611        -2.96038
H         46.86754        34.45576        -3.32436
H         26.83080        27.02234         0.33393
H         25.63450        29.17366         0.83358
H         25.66480        31.43945         1.69425
H         25.82293        33.22275         0.37152
H         25.86961        35.56906        -0.40076
H         25.80498        37.56896         0.17170
H         25.76007        39.98770        -0.18076
H         25.73315        41.75295        -1.07114
H         25.71928        44.20672        -1.30464
H         26.89963        46.36311        -1.19773
H         28.92164        25.75157         0.25621
H         28.97015        47.68135        -1.28448
H         32.68239        23.55924        -0.23012
H         30.60999        24.78394         0.01080
H         32.79741        49.86109        -0.56384
H         30.76745        48.68089        -1.19218
H         34.35188        22.55721        -0.23879
H         34.36869        50.76102         0.03829
H         36.44904        21.32449        -0.31053
H         36.44197        51.94734         0.43317
H         40.29332        19.15564        -0.63071
H         38.15080        20.32491        -0.58633
H         40.18291        53.98453         1.37152
H         38.06245        52.81903         0.94248
H         42.79802        19.12453        -0.45461
H         42.64508        53.97457         1.51292
H         44.90384        20.32242        -0.19454
H         44.79098        52.78814         1.33375
H         48.66592        22.51309         0.22043
H         46.58830        21.31793        -0.13474
H         48.39706        50.42227         1.71995
H         46.29209        51.61828         1.84433
H         50.19335        23.76721        -0.77180
H         50.09503        49.69291         1.31063
H         52.31944        25.06051        -0.65030
H         52.20487        48.50734         1.30498
H         56.07581        26.87677         0.03551
H         54.00427        25.63973         0.50365
H         55.87201        46.27599         1.81261
H         53.83073        47.57113         1.41283
H         57.28403        28.95406        -0.37371
H         57.31638        31.38671        -0.73009
H         57.34119        33.28134        -0.62071
H         57.34854        35.71919        -0.50688
H         57.15759        37.40937         0.61803
H         57.14436        39.80277         1.05744
H         57.14740        41.70154         1.35074
H         57.08833        44.11307         1.81540
