         300
 CSIRO Nanostructure Databank - Neutral Graphene Oxide Data Set
C         30.42162        31.69175         0.91018
C         30.47399        32.89394         1.17547
C         30.46254        36.11198         0.95286
C         30.42347        37.29797         0.61968
C         30.31336        40.66826         0.62305
C         30.27030        41.87324         0.36486
C         32.74726        28.75573         0.51437
C         31.66621        29.36388         0.61015
C         32.84532        31.46291         1.22495
C         31.49059        30.71052         1.14250
C         32.90595        32.99360         1.39131
C         31.58504        33.78360         1.52372
C         32.86494        36.07983         1.23146
C         31.57105        35.27248         1.40951
C         32.78704        37.58952         0.88875
C         31.41841        38.35718         1.04780
C         32.58875        40.40585        -0.22227
C         31.34743        39.67347         0.31114
C         32.62005        41.92101        -0.34329
C         31.31842        42.75269        -0.13873
C         32.71511        44.72292         0.02248
C         31.63568        44.14816         0.18030
C         35.51110        27.24098        -0.49392
C         35.32847        28.55600         0.14987
C         34.04349        29.35279         0.06597
C         35.24962        31.52235         0.24851
C         34.18178        30.70756         0.98761
C         35.21309        33.03027         0.25383
C         34.14895        33.77322         1.02934
C         35.21190        35.96384         0.19088
C         34.13003        35.30483         0.92726
C         35.14289        37.39372        -0.31220
C         33.94928        38.23353         0.18229
C         35.14212        40.43711         0.18787
C         33.92750        39.67581        -0.40835
C         35.22984        41.91472        -0.35655
C         33.93066        42.66632         0.04122
C         35.28288        44.76456        -0.04279
C         34.01153        44.12932        -0.51802
C         35.52982        46.15251        -0.03936
C         37.88250        27.21871        -1.01205
C         36.57226        26.62862        -0.69894
C         37.85079        28.69166        -0.61487
C         36.61899        29.36163        -0.01176
C         37.80153        31.63667         0.17524
C         36.53419        30.83311        -0.06915
C         37.74365        33.06715        -0.36901
C         36.44916        33.79132        -0.17361
C         37.67846        35.96319        -0.56083
C         36.54964        35.26691         0.23763
C         37.70922        37.48035        -0.38724
C         36.44227        38.14097         0.15801
C         37.69646        40.40116         0.07099
C         36.41687        39.65586        -0.11497
C         37.64904        41.84299         0.51915
C         36.45534        42.63592         0.24855
C         37.67770        44.81348         0.82409
C         36.43803        44.04807         0.37798
C         37.79653        46.41820         0.76196
C         36.44671        46.92503         0.27986
C         40.57660        24.48595        -1.00365
C         39.46196        25.17332        -1.04610
C         40.51188        27.24208        -0.70123
C         39.16523        26.49127        -1.01149
C         40.41677        28.76287        -1.01657
C         39.15784        29.39387        -0.38246
C         40.29984        31.66630        -0.59972
C         39.10350        30.87604        -0.14787
C         40.26426        33.16818        -0.50463
C         38.99477        33.88353        -0.35397
C         40.24504        35.99643        -0.06500
C         39.00066        35.26167        -0.30506
C         40.26162        37.46044        -0.03412
C         38.99512        38.21914        -0.21337
C         40.15071        40.44911        -0.24407
C         38.99249        39.63435         0.37314
C         40.25590        41.86621         0.33450
C         39.03735        42.57435         0.70488
C         40.32865        44.83464         0.61289
C         39.00957        44.08580         0.82924
C         40.34094        46.36414         0.31091
C         38.89917        46.76112        -0.24059
C         40.03555        48.74084        -1.19719
C         39.07538        48.18206        -0.66779
C         43.17176        24.66700        -1.17733
C         41.80866        25.03443        -1.20371
C         43.03936        27.40292        -1.32690
C         41.70648        26.60705        -1.51199
C         42.98931        28.88044        -1.06863
C         41.70724        29.48319        -0.50149
C         42.92768        31.80798        -0.55632
C         41.62624        30.98943        -0.76469
C         42.63042        32.98976         0.40576
C         41.53152        33.88936        -0.15949
C         42.77373        36.01064         0.16522
C         41.43183        35.31856         0.16637
C         42.69615        37.49476         0.38344
C         41.42733        38.17119         0.13570
C         42.63617        40.38599         0.39448
C         41.48468        39.63367        -0.23372
C         42.67686        41.83802         0.12389
C         41.48751        42.55727         0.17170
C         42.85434        44.73649        -0.13391
C         41.57324        44.04145         0.32700
C         42.84684        46.20024        -0.49527
C         41.46882        46.79905        -0.69068
C         42.63943        48.76054        -1.72924
C         41.34149        48.13093        -1.47964
C         44.25273        25.29390        -1.28120
C         45.62014        27.53346        -1.20809
C         44.36405        26.73250        -0.81839
C         45.45523        29.00264        -0.76699
C         44.23618        29.58877        -0.65046
C         45.25637        31.61527         0.59589
C         44.06860        30.93680        -0.02550
C         45.14151        33.03082         1.13567
C         43.84359        33.78684         0.90774
C         45.11247        36.03258         1.34619
C         43.82923        35.28975         1.00476
C         45.12224        37.56699         1.16670
C         43.86577        38.16564         0.57605
C         45.17090        40.27086         0.02950
C         43.90616        39.64751         0.59964
C         45.22554        41.77286         0.25714
C         43.97320        42.45434        -0.21839
C         45.37057        44.55361        -0.80589
C         44.02083        43.89481        -0.57599
C         45.25887        45.96868        -1.55327
C         44.01288        46.75748        -1.25378
C         43.62506        47.94455        -1.84545
C         47.78145        27.05441         0.28963
C         46.80200        27.05596        -0.42946
C         48.98846        27.16363         1.04976
C         46.69815        29.79642        -0.57574
C         47.85607        31.70824         0.85701
C         46.63041        31.09564         0.22107
C         47.71474        32.93033         1.76141
C         46.40009        33.74199         1.56889
C         47.72209        36.06964         1.30405
C         46.40841        35.27660         1.55655
C         47.48704        37.17912         0.18828
C         46.37504        38.13878         0.53870
C         47.71495        40.14598         0.05639
C         46.43362        39.46885         0.25243
C         47.75165        41.59912         0.30857
C         46.53176        42.49005         0.39704
C         47.88936        44.81745        -0.11308
C         46.63559        43.92377        -0.20517
C         47.61487        46.02039        -0.84059
C         46.57951        46.61388        -1.16791
C         50.73522        28.63176         2.08404
C         49.51256        28.38351         1.43394
C         50.28867        31.55852         1.49918
C         49.09960        30.89044         1.17260
C         50.29403        33.08180         1.51878
C         48.98128        33.79127         1.56452
C         49.97181        35.59820        -0.00339
C         48.83675        35.11050         0.85238
C         50.05958        37.10926        -0.23401
C         48.79545        37.91692        -0.15144
C         50.23633        40.02340         0.32622
C         48.87202        39.40027         0.02107
C         50.22557        41.54235         0.10638
C         48.95818        42.15492         0.60411
C         50.44161        44.57171         0.20138
C         49.04220        44.44370         0.51285
C         51.50581        29.60674         2.22257
C         52.66307        31.81229         1.54055
C         51.58939        30.92734         1.79598
C         52.68815        32.94103         1.00891
C         51.56460        33.95069         1.06305
C         52.27249        35.63304        -0.69593
C         51.24062        34.64408        -0.26436
C         52.37424        36.85837        -0.72619
C         51.43177        37.80180        -0.00013
C         52.60721        40.14244        -0.12719
C         51.39372        39.27035        -0.44338
C         52.62237        41.37626        -0.07824
C         51.50749        42.33671        -0.13113
C         51.38325        43.76033         0.20517
O         40.83179        31.30430        -1.92545
O         43.82240        42.91459        -1.63621
O         38.36918        38.10561        -1.52114
O         34.63849        32.28909        -0.86570
O         36.88163        33.37421        -1.49708
O         41.97550        39.60428        -1.67340
O         49.37009        37.49451        -1.45215
O         48.91072        43.32115         1.36775
O         47.72632        29.48569        -1.16139
O         39.36799        29.92179         0.95304
O         44.36778        30.77529         1.39610
O         33.82876        38.28644         1.63301
O         38.27993        41.97939         1.82968
O         43.22541        45.75778         0.84455
O         45.67701        42.27178         1.55461
O         31.62217        39.70758        -1.09549
O         43.14639        28.35620        -2.41961
O         50.62260        41.99452        -1.22962
O         41.14465        33.70865        -1.56159
O         37.14595        40.16309        -1.25746
O         37.30029        35.74774        -1.99014
O         33.90681        33.32095         2.38918
O         46.26526        43.73956        -1.62121
O         41.12297        46.81943        -2.11021
O         48.72636        29.56399         1.20665
O         36.19183        28.71704         1.28170
O         49.81008        33.70894         2.75908
O         45.47973        33.16887         2.54098
O         43.15772        40.14622         1.75583
O         43.36405        34.49989         2.11411
O         31.81048        42.43180        -1.45570
O         38.30001        44.42191         2.06748
O         37.74000        28.28598        -2.02126
O         33.81991        35.87590         2.28897
O         48.82541        34.95608        -0.60309
O         45.64157        35.75442         2.68423
O         41.24089        44.48218         1.69112
O         47.49145        32.06334        -0.49655
O         31.43878        34.61587         2.68712
O         32.14245        30.90197         2.40219
O         40.35380        28.92389        -2.42866
H         39.45675        28.64743        -2.73652
O         45.85949        27.43970        -2.60075
H         46.66045        27.96422        -2.81210
O         49.67496        26.03344         1.35916
H         49.21853        25.25046         0.99356
O         38.65649        45.97022        -1.39486
H         39.27202        46.27169        -2.10825
O         33.95836        44.18156        -1.91676
H         33.16434        43.67813        -2.21492
O         51.81572        34.95141         2.00707
H         51.75557        34.57427         2.91042
O         35.29123        41.94967        -1.77590
H         35.98218        41.31253        -2.07875
O         42.04610        32.35311         1.56728
H         42.28629        32.88094         2.36282
O         36.95674        35.22518         1.62901
H         36.83034        36.13312         2.00384
O         50.41256        39.90327         1.74833
H         50.58080        38.96060         1.99159
O         46.96408        36.53375        -0.98699
H         47.66154        36.57382        -1.68471
O         31.22593        38.65518         2.40836
H         31.28255        37.83609         2.94293
O         40.74287        27.07662         0.69671
H         40.65538        26.12511         0.91923
O         45.16431        38.13598         2.51027
H         44.35208        37.87130         2.99266
O         38.50256        35.82226        -2.79691
H         38.61637        34.88537        -3.09330
O         35.00215        40.47894         1.62275
H         35.85658        40.74592         2.02550
O         51.14620        39.35665        -1.81947
H         51.72994        38.72945        -2.29525
O         51.73378        37.69734         1.38431
H         52.62811        38.06980         1.54037
O         36.52531        37.97574         1.59492
H         35.62332        38.11049         1.98269
O         41.91182        29.28961         0.90131
H         41.10586        29.58536         1.38946
O         41.37376        26.61612        -2.88695
H         41.87258        27.34645        -3.32514
O         47.73310        32.40293         3.08721
H         47.51452        33.11474         3.72377
O         38.10691        46.92195         2.01857
H         37.53857        46.50542         2.69758
O         45.24830        45.69992        -2.93359
H         45.93884        45.02334        -3.11684
O         48.11537        36.71082         2.51405
H         47.29151        36.92145         3.01641
O         50.91441        33.65886        -1.20240
H         50.50859        34.07041        -1.99299
O         39.18822        39.48223         1.77992
H         39.06620        40.36519         2.20953
O         35.07716        37.35113        -1.74591
H         35.88111        36.89085        -2.09838
O         41.25043        38.58580        -2.39871
H         40.32832        38.95695        -2.46813
O         43.27017        35.85090        -1.20148
H         42.71300        36.39783        -1.79882
O         44.94755        40.13136        -1.40880
H         45.65504        40.60555        -1.89504
O         34.14890        39.64174        -1.81326
H         33.31649        39.36472        -2.25424
O         34.67755        30.36478         2.26457
H         33.91369        30.24737         2.87401
O         40.60947        47.05263         1.51986
H         41.15412        46.46439         2.09176
O         43.40718        32.28566        -1.81262
H         42.62985        32.64543        -2.30606
O         39.76763        40.68516        -1.61992
H         40.56941        40.99007        -2.10345
O         37.83081        31.86956         1.61343
H         37.91007        30.99622         2.05955
O         44.33314        26.75726         0.60013
H         43.54070        26.28496         0.92913
O         33.89594        42.83544         1.46556
H         34.02041        41.95607         1.89907
O         33.89216        29.77178        -1.27951
H         33.96435        28.99620        -1.87384
