         228
 CSIRO Nanostructure Databank - Neutral Graphene Oxide Data Set
C        -11.20970         0.51062         0.76963
C        -10.09461         1.29905         0.11983
C         -8.76931         0.59681         0.21773
C         -7.57988         1.30925         0.10953
C         -6.35695         0.59320        -0.34089
C         -5.03423         1.23086        -0.08130
C         -3.84685         0.59584        -0.82731
C         -2.50759         1.22749        -0.38378
C         -1.26215         0.61508        -0.92362
C         -0.01334         1.30920        -0.62608
C          1.26192         0.53871        -0.43714
C          2.44808         1.24598        -1.09043
C          3.71811         0.49379        -0.74250
C          4.95539         1.24790        -0.51206
C          6.13902         0.58205        -0.28244
C          7.28238         1.31223         0.29645
C          8.51326         0.58104         0.76483
C          9.73272         1.35691         1.06478
C         10.88884         0.57839         1.46286
C         -9.99421         2.75348         0.49720
C         -8.77798         3.45048         0.46396
C         -7.53225         2.73034         0.27629
C         -6.28692         3.43686         0.35202
C         -5.02231         2.64581         0.39251
C         -3.71091         3.37047         0.45519
C         -2.44616         2.63438         0.12812
C         -1.19185         3.39347        -0.01967
C          0.00748         2.67683        -0.31137
C          1.29432         3.36552        -0.33757
C          2.46276         2.69911        -0.62857
C          3.74306         3.39171        -0.60734
C          4.93390         2.70677        -0.52771
C          6.27696         3.42287        -0.66998
C          7.36648         2.75456         0.12331
C          8.48645         3.45913         0.60704
C          9.65960         2.73145         1.07265
C         -8.72175         4.87097         0.56584
C         -7.50299         5.58140         0.42712
C         -6.26028         4.82984         0.37819
C         -4.99187         5.64619         0.57319
C         -3.68607         4.85840         0.45030
C         -2.41121         5.52085         0.09445
C         -1.20706         4.81643         0.06545
C          0.07409         5.59206         0.35206
C          1.42330         4.79346         0.16388
C          2.39420         5.58396        -0.74407
C          3.73272         4.85641        -0.87134
C          5.04159         5.62470        -0.87930
C          6.22594         4.90479        -0.42279
C          7.34560         5.61511         0.09899
C          8.47883         4.87509         0.58450
C         -7.47896         6.99328         0.36533
C         -6.30577         7.70230        -0.15589
C         -5.01928         6.92759        -0.24597
C         -3.72542         7.68214        -0.42143
C         -2.43065         6.95143        -0.24990
C         -1.16578         7.71129        -0.17934
C          0.02324         7.02168        -0.19193
C          1.24776         7.81106        -0.58153
C          2.51397         7.04817        -0.19113
C          3.73267         7.84161        -0.61323
C          5.02653         7.13519        -0.84829
C          6.35344         7.86438        -0.64705
C          7.36481         7.02242         0.08643
C         -6.18860         9.17451        -0.16243
C         -4.98665         9.82396        -0.18793
C         -3.71076         9.15455        -0.26873
C         -2.48915         9.82005        -0.18558
C         -1.22095         9.16248        -0.18838
C         -0.00007         9.87493         0.01541
C          1.23484         9.23018        -0.05182
C          2.49971         9.86646         0.15835
C          3.71162         9.23274        -0.07770
C          4.98599         9.83578         0.22845
C          6.17429         9.20623         0.03667
C        -11.18002        -0.83571         0.89591
C         -9.99109        -1.62994         0.60979
C         -8.73838        -0.85557         0.45320
C         -7.48469        -1.64023         0.14090
C         -6.32159        -0.89879        -0.42810
C         -5.02709        -1.62492        -0.39762
C         -3.77520        -0.91360        -0.55508
C         -2.55880        -1.57046        -0.60573
C         -1.28520        -0.91491        -0.96408
C         -0.00659        -1.64283        -0.75789
C          1.20090        -0.94471        -0.72243
C          2.43832        -1.64638        -0.65332
C          3.67823        -0.86902        -0.57922
C          4.90790        -1.57617        -0.04597
C          6.19592        -0.90728        -0.54815
C          7.47747        -1.60806        -0.06316
C          8.66439        -0.86804         0.44418
C          9.79324        -1.61581         1.06367
C         10.89644        -0.79238         1.51355
C         -9.96017        -3.00210         0.61618
C         -8.76629        -3.79396         0.31543
C         -7.54044        -3.09559        -0.01699
C         -6.31471        -3.77312        -0.18659
C         -5.07297        -2.99893        -0.24841
C         -3.79775        -3.70548        -0.08198
C         -2.48869        -2.99005        -0.23814
C         -1.23948        -3.77072        -0.44333
C         -0.01228        -3.06302        -0.59943
C          1.21637        -3.78097        -0.52083
C          2.43454        -3.05500        -0.59952
C          3.70114        -3.81452        -0.61439
C          4.96503        -3.04412        -0.42190
C          6.15622        -3.79332         0.08410
C          7.42790        -3.06011         0.31052
C          8.70159        -3.79887         0.55598
C          9.82539        -2.99418         1.01250
C         -8.77456        -5.17896         0.31881
C         -7.59452        -5.92835        -0.27132
C         -6.28959        -5.18865        -0.00012
C         -5.05246        -5.83230         0.23900
C         -3.80637        -5.17942        -0.22877
C         -2.50339        -5.90133        -0.20124
C         -1.23013        -5.15214        -0.25836
C         -0.01354        -5.89767        -0.18441
C          1.21296        -5.20753        -0.32156
C          2.45390        -5.93730        -0.21650
C          3.69377        -5.26625        -0.31654
C          4.90398        -5.97485        -0.14792
C          6.19853        -5.25897        -0.19006
C          7.49628        -5.97151         0.13110
C          8.67524        -5.17048         0.57575
C         -7.56420        -7.46126        -0.16289
C         -6.66683        -8.23928         0.50627
C         -4.86618        -7.01902         0.94247
C         -3.62407        -7.68942         1.01296
C         -2.47309        -7.26682         0.35670
C         -1.26746        -8.03789         0.25244
C         -0.04153        -7.33476         0.02530
C          1.18582        -8.04849         0.06484
C          2.43429        -7.35093        -0.01836
C          3.66012        -8.06413         0.11870
C          4.90058        -7.36925         0.08034
C          6.15067        -8.06637         0.35646
C          7.35980        -7.40121         0.45306
C         -6.29913        -9.61366         0.13464
C         -5.09042       -10.26171         0.17039
C         -3.75958        -9.84372         0.62442
C         -2.56093       -10.21684         0.07391
C         -1.29545        -9.47945         0.25951
C         -0.07213       -10.15952         0.21291
C          1.17153        -9.47409         0.21298
C          2.41104       -10.16545         0.33982
C          3.62928        -9.48786         0.32951
C          4.88565       -10.16862         0.54913
C          6.06938        -9.49497         0.59076
O          7.44521         0.84910         1.73425
O         -4.02332         0.73912        -2.18356
O         -5.84173         6.98142        -1.41556
O          6.17218        -1.06686        -1.98392
H          7.08478        -0.90470        -2.31308
O         -5.02252         6.14336         1.94515
H         -4.76760         5.38258         2.51936
O         -4.97042         1.51493         1.34507
O          6.62599         3.27251        -2.10301
H          5.98003         3.83488        -2.59480
O          4.57467        -3.40949        -1.75626
O          2.07635         4.63460         1.44275
H          1.44456         4.19919         2.05355
O        -10.45085         1.30959        -1.32417
H         -9.71670         1.75271        -1.80239
O          6.90690         8.14236        -1.97024
H          6.13568         8.29296        -2.56331
O         -7.76916        -1.21126         1.52244
O          8.56265        -1.24874        -0.98216
O         -6.55697        -0.08515        -1.62102
O         -0.00018         5.80190         1.81052
H         -0.88200         6.17938         2.01952
O          2.62974         7.07472         1.24338
H          1.85206         6.62877         1.65554
O         -1.33008        -0.10353        -2.18132
O         -3.05157        -3.27206         1.11144
O          4.81557        -1.49225         1.38794
H          4.84421        -0.54664         1.64636
O          4.44092         5.10833        -2.13626
O         -3.52059         4.09264         1.71951
O         -2.32081         1.44590         1.03092
O         -3.67021        -8.91641         1.69286
O          7.09398        -5.64691        -1.26882
O          1.24438         7.98741        -2.02879
H          0.35301         8.30264        -2.28865
O         -3.02802         7.17649        -1.61142
O         -7.75926        -5.71575        -1.72684
H         -8.70785        -5.83500        -1.94514
O          2.25673         1.23184        -2.51776
H          3.05686         1.60091        -2.94539
O          1.53644         0.61464         1.00343
H          0.76189         0.25362         1.48506
O          1.79536         5.57428        -2.04068
H          2.42461         6.00192        -2.66338
O         -5.93507        -7.66218         1.56794
O          4.24200         7.68516        -1.96707
O         -3.28098        -5.73830        -1.47695
O          6.51392        -3.37397         1.43568
H         11.79860        -1.30497         1.88057
H         11.78746         1.12735         1.78277
H         10.54121         3.32071         1.36857
H          9.35755         5.42827         0.94564
H          8.25721         7.53594         0.47579
H          7.10293         9.73027         0.31033
H          4.97794        10.84324         0.67435
H          2.50717        10.90634         0.52387
H         -0.04601        10.95174         0.24152
H         -2.49630        10.91754        -0.09214
H         -4.97758        10.92347        -0.13382
H         -7.11371         9.76124        -0.05834
H         -8.40561         7.55883         0.54763
H         -9.66158         5.43546         0.66100
H        -10.93181         3.32583         0.57380
H        -12.13046         1.05759         1.02394
H        -12.06895        -1.36714         1.27083
H        -10.89401        -3.55484         0.80508
H         -9.70046        -5.72554         0.55561
H         -8.13310        -7.95935        -0.96603
H         -7.09666       -10.15302        -0.40504
H         -5.08044       -11.23830        -0.34484
H         -2.54013       -11.04590        -0.65181
H         -0.06703       -11.25976         0.21248
H          2.39944       -11.25650         0.48334
H          4.86588       -11.25624         0.71335
H          7.00481       -10.04012         0.78608
H          8.25283        -7.95534         0.78204
H          9.57072        -5.72581         0.89704
H         10.72619        -3.52229         1.36311
