         598
 CSIRO Nanostructure Databank - Neutral Graphene Oxide Data Set
C         23.33022        69.63702        -2.19981
C         23.31372        71.02488        -2.47904
C         22.27295        71.68359        -3.14020
C         23.43742        73.85128        -3.12436
C         22.36423        73.06535        -3.46788
C         25.44437        65.60219        -0.29183
C         25.40229        66.98253        -0.50293
C         24.34274        67.62582        -1.18773
C         25.59488        69.75048        -1.18443
C         24.38621        69.00258        -1.49624
C         25.70794        71.12691        -1.68247
C         24.43320        71.84506        -1.96791
C         25.79799        74.02323        -2.09395
C         24.50690        73.32895        -2.27073
C         27.70727        61.33267         0.58635
C         27.72947        62.75326         0.58032
C         26.59078        63.48253         0.27654
C         27.78282        65.62216         0.49352
C         26.60531        64.91968         0.20398
C         27.78310        67.08049         0.46610
C         26.52155        67.81447        -0.01420
C         27.86895        69.94775        -0.19619
C         26.66882        69.19104        -0.52157
C         27.96176        71.31275        -0.50560
C         26.93226        71.93311        -1.35153
C         28.08252        74.11713        -1.18770
C         26.88962        73.41178        -1.50295
C         30.16615        56.99271         1.16200
C         29.75201        58.28602         1.43513
C         28.71315        59.12390         0.90355
C         30.16254        61.23517         0.68294
C         28.84421        60.52951         0.84873
C         30.20200        62.73101         0.55377
C         28.97486        63.42312         1.15060
C         30.28730        65.64126         0.40860
C         29.05308        65.00707         1.05046
C         30.27166        67.04616         0.20383
C         29.05369        67.79121         0.31175
C         30.29844        69.86967         0.26539
C         29.05101        69.20015         0.21190
C         30.31831        71.30251         0.50880
C         29.05098        72.15911         0.00933
C         30.37153        74.34855        -0.53427
C         29.19287        73.55928        -0.52011
C         32.72452        52.83909         1.66911
C         32.66111        54.23822         1.87546
C         31.50506        54.96944         1.59082
C         32.61934        57.13782         1.82044
C         31.42741        56.40525         1.61129
C         32.71045        58.55035         1.53858
C         31.58811        59.40286         1.60437
C         32.66002        61.18532         0.37489
C         31.48175        60.60438         0.89520
C         32.65741        62.60942        -0.10355
C         31.53879        63.41718         0.51370
C         32.78783        65.54766        -0.23598
C         31.57452        64.91540         0.35940
C         32.69091        67.00692        -0.46433
C         31.48714        67.76283        -0.07172
C         32.77194        69.92561        -0.06980
C         31.51897        69.17196         0.03361
C         32.80071        71.37305         0.16803
C         31.61820        71.94121         0.60184
C         32.89688        74.39413        -0.36894
C         31.62478        74.04618         0.05700
C         35.18504        48.58707         1.12136
C         35.16441        49.97219         1.42487
C         33.95881        50.70454         1.44535
C         35.17567        52.75334         2.03228
C         33.92480        52.09005         1.73369
C         35.17943        54.20717         2.32799
C         33.87850        54.95505         2.33791
C         35.15185        56.97989         1.53209
C         33.91869        56.48654         2.27478
C         35.10903        58.28570         0.78414
C         33.87853        59.12488         0.99940
C         35.09326        60.99129        -0.08057
C         33.84274        60.42479         0.46201
C         35.14723        62.39644        -0.61415
C         33.91972        63.32188        -0.58171
C         35.20683        65.66113        -0.60479
C         33.96962        64.85944        -0.51047
C         35.23172        67.07000        -0.40038
C         33.99000        67.82254        -0.58581
C         35.22521        70.00568        -0.34201
C         33.95622        69.26136        -0.28219
C         35.25508        71.45019        -0.04223
C         34.03412        72.15233         0.08444
C         35.31797        74.23648        -0.11612
C         34.06893        73.60066        -0.04632
C         37.68114        44.39191         0.26549
C         37.62471        45.72475         0.66095
C         36.42641        46.49481         0.66911
C         37.65785        48.59898         1.19705
C         36.38548        47.85476         1.02600
C         37.61516        49.96390         1.73774
C         36.40885        50.64924         1.76749
C         37.62282        52.79183         2.38833
C         36.36113        52.05446         2.10017
C         37.64596        54.22770         2.01994
C         36.44369        54.93567         2.04407
C         37.64007        56.92075         1.21677
C         36.39163        56.30319         1.60235
C         37.63324        58.36057         0.74755
C         36.35166        59.09840         1.20872
C         37.22168        61.41697         1.02176
C         36.29438        60.49932         0.64162
C         37.49576        62.62096         0.27717
C         36.51579        62.96635        -0.60282
C         37.64612        65.66070        -0.08823
C         36.51458        65.11873        -0.71314
C         37.62727        67.04976         0.14794
C         36.44677        67.75369        -0.14305
C         37.76179        69.93739         0.06604
C         36.51248        69.22528        -0.27189
C         37.75665        71.36652         0.03391
C         36.51656        72.09900        -0.02387
C         37.78876        74.20262        -0.00089
C         36.54517        73.53377        -0.01931
C         40.13586        40.32658        -1.07585
C         40.13208        41.65193        -0.53397
C         38.92664        42.35349        -0.35480
C         40.16352        44.26065         0.52390
C         38.91509        43.65979         0.17804
C         40.18092        45.59202         1.13282
C         38.85996        46.34346         1.19199
C         40.21580        48.40915         1.70743
C         38.95571        47.82242         1.22120
C         40.15393        49.76941         2.26374
C         38.85992        50.54664         2.29403
C         40.15890        52.76036         2.02305
C         38.92243        52.04765         2.44219
C         40.10534        54.08115         1.61137
C         38.87413        54.84002         1.64034
C         40.12389        56.86298         0.87980
C         38.86146        56.21831         1.24980
C         40.10026        58.28650         0.50136
C         38.95574        59.06193         1.00748
C         40.22274        61.19802         0.70024
C         39.13260        60.39626         1.22957
C         40.12012        62.61102         0.48718
C         38.79956        63.34682         0.52511
C         40.14781        65.50270         0.17149
C         38.83153        64.84111         0.33637
C         40.17976        66.97326         0.36571
C         38.89618        67.75914         0.44903
C         40.21374        69.90037         0.27031
C         38.94854        69.22938         0.25297
C         40.23301        71.34175         0.24388
C         38.99363        72.05271         0.14093
C         40.24712        74.16110         0.03351
C         39.00428        73.49131         0.07748
C         42.55737        36.76971        -3.37118
C         42.55189        37.76593        -2.40842
C         41.24846        38.22355        -1.80296
C         42.56915        40.21673        -0.89515
C         41.30766        39.63405        -1.26712
C         42.59924        41.53822        -0.35734
C         41.37870        42.26510        -0.20231
C         42.64570        44.27363         0.54234
C         41.39096        43.60552         0.28827
C         42.66153        45.64830         0.95270
C         41.44620        46.34283         1.19104
C         42.69801        48.43097         1.76587
C         41.42949        47.71915         1.58143
C         42.69286        49.78433         2.06644
C         41.44741        50.51776         2.36254
C         42.70505        52.66727         1.73914
C         41.44561        52.04104         2.17146
C         42.65205        54.01080         1.13877
C         41.32660        54.72969         1.05574
C         42.60433        56.88628         0.62951
C         41.33870        56.19779         0.85861
C         42.63874        58.27567         0.39076
C         41.38505        59.02496         0.25712
C         42.60427        61.20631         0.16187
C         41.39903        60.49953         0.37165
C         42.56168        62.63290         0.10843
C         41.30369        63.32105         0.16382
C         42.55312        65.48561        -0.44649
C         41.29510        64.77796         0.02054
C         42.56695        66.98786        -0.21732
C         41.43571        67.69745         0.06995
C         42.65794        69.84883         0.07693
C         41.42683        69.15518         0.14720
C         42.67555        71.25885         0.34021
C         41.47513        72.04675         0.32265
C         42.65033        74.29465        -0.10914
C         41.48430        73.49688         0.15129
C         45.00919        34.86513        -5.48375
C         43.79477        35.32051        -4.95810
C         45.01122        36.70771        -3.33275
C         43.77759        36.26099        -3.90038
C         44.99346        37.70683        -2.33577
C         43.77862        38.29751        -1.91357
C         45.00804        40.08084        -0.67432
C         43.78531        39.50036        -1.09480
C         45.03638        41.40171        -0.17773
C         43.84690        42.15392        -0.03308
C         45.09327        44.21265         0.63015
C         43.87089        43.55460         0.38467
C         45.12922        45.60174         0.95752
C         43.91234        46.32904         1.14243
C         45.18559        48.36498         1.67773
C         43.94561        47.70622         1.54289
C         45.24266        49.79626         2.06031
C         43.93932        50.56372         2.23624
C         45.14981        52.70530         1.59435
C         43.91911        52.01315         1.88645
C         45.13172        54.10213         1.27315
C         43.90017        54.79455         1.07843
C         45.09082        56.90459         0.62902
C         43.85789        56.17400         0.77472
C         45.07371        58.29488         0.34125
C         43.85635        59.01770         0.25732
C         45.03534        61.21214         0.02987
C         43.83497        60.45846         0.08819
C         45.01805        62.61624         0.10070
C         43.80489        63.37150         0.07937
C         45.02997        65.55249         0.07800
C         43.81992        64.78980         0.01101
C         45.06390        66.92567        -0.13290
C         43.84590        67.69867        -0.59738
C         45.10932        69.85280        -0.18485
C         43.89790        69.16004        -0.16741
C         45.16895        71.25440         0.17513
C         43.94509        71.82612         0.59328
C         45.20742        74.30355        -0.21518
C         43.94916        73.93137         0.27373
C         46.22109        35.30915        -4.96928
C         47.48698        36.66911        -3.36276
C         46.26451        36.21545        -3.86640
C         47.55456        37.45157        -2.13193
C         46.24057        38.03726        -1.62282
C         47.58570        39.87031        -0.39738
C         46.25751        39.26206        -0.75122
C         47.58799        41.27135         0.15178
C         46.36018        42.13996        -0.12635
C         47.62816        44.14867         0.52549
C         46.34431        43.37243         0.79810
C         47.64150        45.63831         0.72593
C         46.37156        46.29747         1.08817
C         47.68298        48.34143         1.44814
C         46.40135        47.66346         1.39588
C         47.65274        49.81827         1.37902
C         46.43443        50.57613         1.70105
C         47.61687        52.72073         1.37600
C         46.39430        51.97515         1.58641
C         47.59594        54.08537         1.15422
C         46.35974        54.82286         1.06767
C         47.57775        56.96373         0.63870
C         46.34031        56.20545         0.75516
C         47.60095        58.30514         0.36154
C         46.33801        58.99646         0.05108
C         47.58025        61.27145        -0.01664
C         46.32181        60.49934        -0.11718
C         47.55973        62.62526         0.03952
C         46.29024        63.33908         0.29408
C         47.60919        65.53610         0.22837
C         46.30013        64.83537         0.36230
C         47.59517        67.03858         0.39720
C         46.35299        67.63605        -0.23217
C         47.66802        69.85101        -0.13912
C         46.38470        69.12902        -0.37570
C         47.60224        71.32724        -0.28693
C         46.35152        72.04813         0.03016
C         47.63628        74.17170        -0.13131
C         46.38244        73.49016        -0.05744
C         48.89955        38.02264        -1.68918
C         50.02435        40.04379        -0.82002
C         48.85874        39.34999        -0.96294
C         50.12828        41.35038        -0.19859
C         48.89710        41.97164         0.33837
C         50.10927        44.13146         0.61468
C         48.91263        43.43816         0.52805
C         50.11817        45.53259         0.98216
C         48.93416        46.27022         1.06213
C         50.16863        48.38058         1.84237
C         48.89800        47.67051         1.38906
C         50.24119        49.83465         1.42561
C         48.95077        50.55106         1.32599
C         50.21921        52.70336         1.34526
C         48.91506        52.01476         1.56276
C         50.16380        54.07618         0.80359
C         48.85281        54.78355         0.78490
C         50.16262        56.97858         0.59008
C         48.86874        56.27208         0.85897
C         50.15393        58.39041         0.14459
C         48.87182        59.08130         0.36517
C         50.12904        61.20295        -0.30236
C         48.87130        60.55468         0.11587
C         50.10300        62.68286        -0.39195
C         48.80092        63.40309        -0.17738
C         50.07822        65.51554         0.40826
C         48.77843        64.85022         0.14287
C         50.08108        67.01280         0.45581
C         48.88012        67.67682        -0.18740
C         50.15527        69.89162         0.04284
C         48.86853        69.19161        -0.06333
C         50.16896        71.34736        -0.03613
C         48.91578        72.07724        -0.31896
C         50.10758        74.22776         0.02870
C         48.88736        73.53811        -0.09967
C         51.28253        42.08559        -0.23323
C         52.55490        44.12333         0.25174
C         51.36033        43.44808         0.26600
C         52.70079        45.45001         0.87638
C         51.42308        46.13899         1.34748
C         52.75332        48.34270         1.22696
C         51.48149        47.61980         1.59460
C         52.65887        49.78583         0.87599
C         51.42066        50.51699         1.22831
C         52.65814        52.66394         0.94374
C         51.46961        51.95183         1.10783
C         52.62518        54.12026         0.88830
C         51.44322        54.79868         0.77299
C         52.61721        56.99532         0.37755
C         51.38201        56.17731         0.20421
C         52.56301        58.25563        -0.16554
C         51.31201        59.03276        -0.26212
C         52.53275        61.28780        -0.69429
C         51.30891        60.49890        -0.48625
C         52.56937        62.70349        -0.37944
C         51.38435        63.38712        -0.19031
C         52.64564        65.57051         0.11080
C         51.38825        64.79311         0.24692
C         52.64984        66.97466         0.25816
C         51.38410        67.73128         0.45546
C         52.62022        69.88840         0.42525
C         51.34452        69.19127         0.20418
C         52.59637        71.38924         0.39393
C         51.32724        72.08248         0.11886
C         52.57051        74.24158         0.18374
C         51.35295        73.54135         0.07843
C         53.90624        46.25486         0.58297
C         55.15356        48.39789         0.47724
C         53.95500        47.62343         0.71168
C         55.19682        49.79438         0.50581
C         53.91404        50.53841         0.54236
C         55.13702        52.68462         0.70298
C         53.92981        52.00362         0.73752
C         55.19559        54.13947         0.99309
C         53.89282        54.88821         1.04847
C         55.19143        57.19956         0.74454
C         53.88707        56.38052         0.83109
C         55.06140        58.32191        -0.26523
C         53.82372        58.71251        -0.69203
C         55.03287        61.31273        -0.90803
C         53.73733        60.74459        -1.12070
C         55.04124        62.73527        -0.64783
C         53.83932        63.41832        -0.38984
C         55.07486        65.56719        -0.24683
C         53.84499        64.85043        -0.16499
C         55.06113        66.98669        -0.15083
C         53.86739        67.70004         0.08886
C         55.07741        69.86592         0.16461
C         53.90052        69.15679         0.19887
C         55.12184        71.34526         0.08545
C         53.85225        72.11946         0.06146
C         55.05833        74.24266         0.32382
C         53.85187        73.59553         0.23762
C         56.38102        50.57052         0.36169
C         57.55407        52.73974         0.11703
C         56.37796        51.98222         0.41240
C         57.60795        54.14317         0.12443
C         56.46392        54.90829         0.67239
C         57.57893        57.04453         0.04506
C         56.43399        56.36662         0.41911
C         57.46597        58.48785        -0.21146
C         56.24085        59.10260        -0.57497
C         57.51430        61.23607        -1.15879
C         56.20780        60.51429        -0.87468
C         57.48733        62.70460        -0.81018
C         56.31195        63.43007        -0.64576
C         57.53714        65.57169        -0.47294
C         56.31338        64.86516        -0.46967
C         57.57872        66.96220        -0.27475
C         56.32613        67.71676        -0.33452
C         57.63848        69.87919         0.28834
C         56.37109        69.21992        -0.13236
C         57.59197        71.34503         0.47453
C         56.39416        72.03595         0.34768
C         57.55724        74.19057        -0.12589
C         56.37817        73.54216         0.56179
C         58.73591        54.88129        -0.30417
C         60.06906        56.88953        -0.62802
C         58.82374        56.29383        -0.24887
C         60.44499        58.21204        -0.30202
C         58.59968        59.32507        -0.04200
C         60.03686        61.25495        -0.56080
C         58.74318        60.58028        -0.57534
C         60.04547        62.63178        -0.67993
C         58.78847        63.38148        -0.91386
C         60.08224        65.58166        -0.53924
C         58.79995        64.87581        -0.76166
C         60.03917        67.00943        -0.33815
C         58.80112        67.67500        -0.14702
C         60.06096        69.52089         0.78550
C         58.78067        69.05707         0.31710
C         60.04404        71.68474         0.81140
C         58.80837        72.17694         0.45762
C         60.03988        74.19423        -0.30735
C         58.78513        73.54128        -0.06126
C         61.40531        59.09265        -0.81971
C         62.50216        61.27824        -0.79333
C         61.32570        60.52265        -0.63662
C         62.56331        62.69558        -0.65172
C         61.28045        63.40151        -0.28714
C         62.55462        65.60622        -0.84221
C         61.26260        64.87773        -0.59512
C         62.49216        67.02473        -0.35054
C         61.29341        67.70602        -0.20539
C         62.46339        69.93393         0.15044
C         61.27405        69.05140         0.34174
C         62.48662        71.42649         0.34815
C         61.30253        72.20158         0.37828
C         62.54164        74.18883        -0.31702
C         61.28496        73.56495        -0.09212
C         63.75490        63.40737        -0.60753
C         64.96429        65.50272        -0.12456
C         63.80541        64.84201        -0.44560
C         65.01880        66.96392         0.12056
C         63.72965        67.73357         0.00019
C         65.07213        69.94003        -0.30731
C         63.72954        69.21474        -0.24594
C         64.95235        71.32855         0.32423
C         63.74055        72.10320         0.24971
C         64.97132        74.28641        -0.28068
C         63.75458        73.53533        -0.04340
C         66.27115        67.73762         0.09067
C         67.47880        69.85883         0.37653
C         66.27487        69.12215         0.18562
C         67.45784        71.26558         0.50328
C         66.16369        71.87915         0.69060
C         67.52037        74.31093        -0.09106
C         66.19155        73.96349         0.28966
C         68.61037        72.09402         0.45399
C         68.61328        73.47124         0.15164
O         66.14026        73.07395         1.40366
O         39.58279        67.33299         1.67260
O         32.88999        62.86616        -1.51416
O         35.98515        69.68421        -1.57363
O         26.76605        71.28535        -2.68398
O         48.25111        50.24733         0.06257
O         29.32949        71.87887         1.40010
O         46.35026        59.61327        -1.30016
O         31.60313        73.19434         1.19018
O         38.51675        48.48058        -0.02405
O         48.23507        71.71770        -1.57054
O         64.21317        67.36321         1.34087
O         59.65200        58.79457         0.70867
O         44.72406        50.14752         3.39500
O         30.52039        58.98989         2.39458
O         31.89940        64.20709         1.65852
O         46.28398        64.04433         1.60656
O         62.84641        69.65662        -1.28936
O         46.49960        68.24876        -1.58209
O         24.02858        72.79788        -0.94973
O         34.46385        54.48158         3.59872
O         40.52947        58.56266        -0.88489
O         35.09809        61.23956        -1.52354
O         60.07389        70.59217         1.67983
O         58.82412        64.26203        -2.11467
O         46.82696        36.85094        -1.00417
O         39.33137        49.82618         3.48690
O         54.46156        71.75131        -1.21784
O         39.37996        45.70542         2.38369
O         52.23946        45.39534         2.29030
O         36.71270        63.99092        -1.51199
O         43.99526        72.99180         1.34022
O         53.76126        55.80208         2.18665
O         50.58667        67.50323         1.71598
O         49.67863        52.51727         2.70540
O         52.99843        50.06289        -0.52570
O         38.17046        61.07499         1.99184
O         49.32736        63.20533        -1.56087
O         41.55702        51.40066         3.50186
O         52.63430        70.68979         1.67985
O         48.20848        41.28306         1.47584
O         49.68198        56.79498         1.96232
O         30.05171        61.93601        -0.64036
O         26.82448        67.69826         1.39670
O         49.76320        38.22131        -2.85456
O         50.73440        64.93081         1.57989
O         28.94066        63.07571         2.51182
O         33.22270        67.42897        -1.76309
O         65.41608        70.30599        -1.60524
O         46.88622        38.97810         0.54056
O         53.72220        59.53337        -1.82119
O         56.11978        54.50925         2.05831
O         56.35868        68.65091        -1.48900
O         38.27767        52.51468         3.67453
O         41.86097        54.02062        -0.12536
O         48.95022        60.02173         1.51178
O         47.54756        45.05190        -0.64525
O         38.65294        64.24599         1.68015
O         49.40335        54.21814        -0.47485
O         52.45268        48.01582         2.62138
O         35.05876        57.94585        -0.62389
H         35.95597        58.03965        -1.02721
O         50.45303        36.94654        -3.08110
H         51.21652        37.23093        -3.63990
O         40.16436        38.07008        -2.72308
H         40.30058        38.69273        -3.46598
O         34.09765        56.99315         3.62970
H         34.47159        56.24837         4.16224
O         29.17254        65.48523         2.40478
H         29.07464        64.65212         2.97101
O         46.55032        42.59214        -1.50222
H         46.66471        43.57078        -1.51962
O         47.50919        67.37386         1.79765
H         48.29283        67.00488         2.26071
O         51.29495        55.97527        -1.25090
H         50.57299        55.31325        -1.40468
O         50.00052        48.44115         3.29150
H         50.90452        48.48194         3.68391
O         57.67454        61.18975        -2.62249
H         57.00359        61.78569        -3.01851
O         61.24819        63.37616         1.19867
H         61.41891        62.45125         1.48038
O         55.40593        57.79502         2.04454
H         55.19141        57.10122         2.71050
O         36.33129        59.13802         2.64270
H         37.00546        59.79326         2.93600
O         49.00145        67.33228        -1.58370
H         48.22916        67.72996        -2.05544
O         56.62498        73.75641         2.00872
H         57.49000        73.34189         2.21934
O         43.88966        67.69270        -2.07256
H         44.80762        67.97424        -2.32047
O         42.53553        65.31501        -1.90722
H         43.07966        66.05021        -2.29047
O         46.32060        42.97236         2.18108
H         47.03952        42.30410         2.32258
O         62.67534        65.70893        -2.31363
H         61.87296        66.16290        -2.65106
O         37.60863        58.36328        -0.71699
H         38.49619        58.11485        -1.06168
H         23.52078        74.87643        -3.51358
H         25.84433        75.09832        -2.32662
H         28.14074        75.17779        -1.47664
H         30.34263        75.23126        -1.19272
H         33.02973        75.23259        -1.06884
H         35.34794        75.32965        -0.23404
H         37.81127        75.30168        -0.04557
H         40.24818        75.25334        -0.10030
H         42.50293        75.22821        -0.67287
H         45.31080        75.23771        -0.78673
H         47.61182        75.27192        -0.12297
H         50.09918        75.32568         0.10187
H         52.53917        75.34125         0.22550
H         55.07588        75.34169         0.39664
H         57.49442        75.23973        -0.45128
H         60.02549        75.23869        -0.65373
H         62.56483        75.23515        -0.65692
H         64.92124        75.11631        -1.00160
H         67.69392        75.25081        -0.63578
H         22.46205        69.02961        -2.49806
H         21.39792        71.11141        -3.47999
H         21.55921        73.50306        -4.07584
H         24.58414        64.99229        -0.60615
H         23.47417        67.03090        -1.50713
H         26.74495        60.82820         0.39509
H         25.65161        62.95688         0.04249
H         29.52086        56.35195         0.54165
H         27.74507        58.68075         0.61818
H         31.80147        52.31799         1.37136
H         30.61061        54.41599         1.26576
H         34.23051        48.07121         0.93787
H         33.01754        50.18652         1.20759
H         36.76197        43.89350        -0.07684
H         35.48357        45.98990         0.40920
H         39.17991        39.85713        -1.35088
H         37.97736        41.87642        -0.63909
H         41.59910        36.38272        -3.74791
H         41.02399        37.53591        -0.93802
H         45.00307        34.14890        -6.31730
H         42.84369        34.96480        -5.37904
H         47.16729        34.94265        -5.39237
H         48.42240        36.41951        -3.88470
H         49.39672        37.26388        -1.03042
H         50.94291        39.62309        -1.25794
H         52.19673        41.64177        -0.65657
H         53.45474        43.63148        -0.14903
H         54.78381        45.71901         0.18889
H         56.08840        47.84233         0.30586
H         57.33831        50.05051         0.20476
H         58.45114        52.18609        -0.20069
H         59.62240        54.32075        -0.64016
H         60.78500        56.25339        -1.17248
H         62.25668        58.69884        -1.39668
H         63.44249        60.74018        -0.99181
H         64.70887        62.85756        -0.65900
H         65.88496        64.92271         0.04992
H         67.22635        67.18815         0.06668
H         68.43344        69.31959         0.49077
H         69.58782        71.58726         0.43846
H         69.60455        73.89623        -0.07399
