         252
 CSIRO Nanostructure Databank - Neutral Graphene Oxide Data Set
C         31.02528        32.10034         2.71676
C         30.96658        33.23761         2.20338
C         30.79230        36.20370         1.25657
C         30.58581        37.42799         1.34599
C         31.07116        40.53396         2.12164
C         31.07893        41.75092         2.37225
C         33.37273        29.14978         2.65711
C         32.39167        29.86676         2.93299
C         33.26817        31.85223         1.96204
C         32.18204        31.26111         2.63726
C         33.19485        33.20657         1.41435
C         31.93287        33.97233         1.46022
C         32.92066        35.88113         0.16880
C         31.82293        35.26773         0.96992
C         33.00630        37.36584        -0.05565
C         31.24683        38.50925         0.67723
C         32.95306        40.36047         0.66700
C         31.73101        39.68737         1.18400
C         33.06402        41.77129         0.86333
C         31.76202        42.59863         1.28510
C         33.31547        44.46341         1.37899
C         32.24516        43.94598         1.70334
C         35.75883        27.30830         1.12007
C         35.64019        28.74820         1.39573
C         34.31988        29.47757         1.50993
C         35.42936        31.65625         0.68971
C         34.57302        31.04069         1.81308
C         35.67909        33.15059         1.02776
C         34.33214        33.85015         0.92905
C         35.47032        35.98636         0.14302
C         34.26279        35.15189         0.24330
C         35.44828        37.46090         0.44344
C         34.11282        38.13274         0.17293
C         35.28865        40.29959        -0.10749
C         34.08524        39.60675         0.21813
C         35.34450        41.70527        -0.01699
C         34.28005        42.42133         0.58211
C         35.64653        44.56479         0.33780
C         34.64122        43.82092         1.15904
C         35.77121        46.01504         0.33978
C         37.78578        27.00019        -0.30181
C         36.72143        26.65653         0.70698
C         37.62751        28.65552        -0.37413
C         36.77915        29.43440         0.65461
C         37.73623        31.52671        -0.30001
C         36.70555        30.90242         0.35710
C         37.69103        32.98820        -0.62262
C         36.64079        33.80439         0.04712
C         37.83637        35.89824        -0.70777
C         36.80156        35.30151         0.21583
C         37.69008        37.37892        -1.02474
C         36.54572        38.13587        -0.36620
C         37.69020        40.25115        -0.80367
C         36.50325        39.54557        -0.50210
C         37.82543        41.71412        -0.44348
C         36.49285        42.44348        -0.69521
C         37.74994        44.60725        -1.12156
C         36.61068        43.91272        -0.37421
C         37.95881        46.10146        -0.74758
C         36.80075        46.57893        -0.10441
C         40.50616        24.33705        -0.07722
C         39.58677        25.20004         0.17145
C         40.33619        27.34172        -0.25635
C         39.18768        26.51784         0.03381
C         40.12810        28.66370        -0.78998
C         38.92390        29.37410        -0.60587
C         40.06786        31.46315        -1.21333
C         38.92345        30.77875        -0.70240
C         40.19618        32.94604        -1.02615
C         38.89111        33.68050        -1.29303
C         40.22627        35.89207        -1.42585
C         38.95069        35.18928        -1.04614
C         40.23225        37.38393        -1.25220
C         39.01136        38.06458        -0.64792
C         40.24004        40.23106        -1.30406
C         38.93827        39.51878        -1.08402
C         40.30561        41.74589        -1.41378
C         39.00464        42.44774        -1.04065
C         40.32836        44.51187        -1.20031
C         39.05062        43.81511        -1.03679
C         40.31513        45.93452        -1.71937
C         39.11617        46.73193        -1.11796
C         40.42645        48.75580        -1.58692
C         39.43060        48.10425        -1.18327
C         43.02675        24.52070        -0.72665
C         41.85525        24.67744         0.06520
C         42.73434        27.45169        -0.97055
C         41.68912        26.90319        -0.14678
C         42.39781        28.59586        -1.70584
C         41.19070        29.30992        -1.47187
C         43.06372        31.86054        -1.91530
C         41.06956        30.68975        -1.78629
C         42.85208        33.04059        -1.25140
C         41.50908        33.68292        -1.03128
C         42.67698        35.86010        -0.89840
C         41.52141        35.17575        -1.18041
C         42.76466        37.33431        -1.06705
C         41.50453        38.11456        -1.03561
C         42.70656        40.24738        -0.73673
C         41.50188        39.49069        -1.01878
C         42.70829        41.62428        -0.61458
C         41.40215        42.37340        -0.55480
C         42.78778        44.51419        -0.88546
C         41.50185        43.84797        -0.91807
C         42.84262        45.92108        -1.23165
C         41.66172        46.65578        -1.55844
C         43.01042        48.61961        -1.68619
C         41.70086        48.09034        -1.67921
C         43.89975        25.40532        -0.94424
C         45.25515        27.48773        -1.42511
C         44.04467        26.79657        -1.18507
C         45.43255        28.91839        -1.56399
C         44.34906        29.74421        -1.98902
C         45.55157        31.87997        -1.51662
C         44.28980        31.11370        -1.78776
C         45.35699        33.10048        -0.62548
C         43.99024        33.68006        -0.54458
C         45.06597        35.97069         0.19520
C         43.86557        35.16984        -0.30989
C         45.36080        37.28544        -0.54409
C         44.06067        38.06058        -0.82930
C         45.08883        40.21761         0.18169
C         43.90495        39.46940        -0.34290
C         45.05300        41.68746         0.10543
C         43.91166        42.36405        -0.28694
C         45.18578        44.50861        -0.21792
C         43.93453        43.82018        -0.44343
C         45.25964        45.89324        -0.60030
C         44.12759        46.57283        -1.11492
C         44.03909        47.94457        -1.42912
C         47.70146        27.39915        -1.21135
C         46.56996        26.90940        -1.30325
C         47.99481        28.84060        -1.24860
C         46.68522        29.61462        -1.26502
C         47.94255        31.73251        -0.74236
C         46.70867        30.98640        -1.10643
C         47.81907        33.18589        -0.33607
C         46.45709        33.79835        -0.18016
C         47.48033        35.87377         0.72598
C         46.37628        35.18291         0.27159
C         47.46363        37.34298         0.84853
C         46.41488        38.04135         0.27405
C         47.49592        40.23491         1.04677
C         46.41113        39.51586         0.29057
C         47.26156        41.67677         1.41740
C         46.15350        42.42599         0.75315
C         47.54241        44.49835         0.67165
C         46.29689        43.85730         0.41011
C         47.52869        45.84342         0.20649
C         46.54458        46.41292        -0.31967
C         50.53166        28.98139        -0.36413
C         49.26146        29.52623        -0.85357
C         50.32799        31.62996         0.32622
C         49.14440        30.94424        -0.29046
C         50.24302        33.11013         0.65123
C         48.97495        33.85866         0.36938
C         49.85341        35.86756         1.66415
C         48.62887        35.04387         1.27431
C         49.55668        37.23340         2.25595
C         48.52090        38.04514         1.58165
C         49.61631        40.13916         2.40555
C         48.53551        39.43714         1.74366
C         49.66750        41.64811         2.40010
C         48.47225        42.44480         1.87456
C         49.89018        44.27514         1.67772
C         48.62253        43.84342         1.35621
C         51.49762        29.51059         0.19262
C         52.53688        31.66564         1.29663
C         51.78771        30.98909         0.18667
C         52.36448        32.82556         1.68986
C         51.10038        33.61074         1.87723
C         51.93397        35.89728         2.91275
C         51.14853        35.12499         1.93376
C         51.84934        37.11134         3.13792
C         50.65760        37.96482         3.05842
C         51.86899        40.22065         3.10473
C         50.70169        39.41593         2.93325
C         51.99635        41.45883         2.94816
C         51.02095        42.36830         2.48041
C         50.93175        43.70987         2.16915
O         49.37700        30.90670         1.16288
O         31.84900        38.03162        -0.51816
O         48.22263        32.81830        -1.69783
O         33.37213        35.10381        -0.97264
O         50.14540        33.99004        -0.48060
O         47.53158        40.12626        -0.42873
O         40.11139        36.78509        -2.58863
O         43.54396        34.20115         0.75273
O         39.48505        39.67574        -2.43932
O         44.12317        39.59720         1.10981
O         50.96233        35.87730         0.71822
O         48.93252        29.35104        -2.23837
O         46.10582        42.03980         2.21978
O         48.69769        42.27060         3.30753
O         37.49523        44.68919        -2.50700
O         43.62206        37.83361        -2.19296
O         36.82485        29.18322         2.09190
O         36.44626        33.38554        -1.33718
O         42.01758        31.26873        -2.62793
O         43.27938        29.10889        -2.64498
O         49.51665        37.35697         3.71386
O         36.78868        28.90092        -1.58200
O         40.83228        33.28441         0.24218
O         42.00715        25.93465         0.81291
O         37.48529        26.46273        -1.56061
H         36.67538        26.89896        -1.90505
O         48.12003        34.43921         2.49417
H         48.00038        35.13958         3.17096
O         40.63277        42.04901        -2.78006
H         40.03559        41.51838        -3.35218
O         40.02074        45.82762        -3.12794
H         39.12489        45.39003        -3.19581
O         38.69326        33.57279        -2.72062
H         37.75705        33.81464        -2.90463
O         30.93896        42.67770         0.16550
H         30.21493        43.31437         0.33170
O         40.94705        42.25237         0.83339
H         41.63501        42.63613         1.41896
O         52.29823        31.37113        -1.05310
H         53.22969        31.08356        -1.13715
O         35.25290        43.57731         2.42881
H         34.58181        43.20070         3.03558
O         36.23067        42.37251        -2.11459
H         36.61565        43.20070        -2.53591
O         37.41520        35.55170         1.55147
H         38.15797        36.19580         1.44416
O         34.61399        31.59199        -0.49815
H         35.04586        32.15135        -1.18982
O         37.66617        28.86925        -2.75421
H         37.22680        29.52334        -3.35063
O         45.98434        36.97726        -1.80096
H         45.35195        37.20414        -2.52323
O         45.87803        32.43693        -2.83497
H         46.81657        32.75599        -2.79755
O         38.08277        41.69349         0.99793
H         39.03948        41.89359         1.14855
O         44.72596        36.36605         1.54467
H         44.35681        35.57111         1.99273
O         39.11913        37.95584         0.79214
H         39.89495        38.46952         1.10366
O         33.66011        29.25644         0.29503
H         32.83545        29.78452         0.26576
O         37.47871        37.50590        -2.44106
H         38.32979        37.30399        -2.90299
O         35.28395        31.08584         3.04144
H         34.74114        30.65506         3.73520
O         36.23083        33.24911         2.34240
H         36.60464        34.14985         2.46997
O         50.47107        33.18990         3.07461
H         50.40330        32.21171         3.08428
O         35.73387        37.68304         1.86853
H         36.41635        37.02635         2.14367
