         600
 CSIRO Nanostructure Databank - Neutral Graphene Oxide Data Set
C         23.01674        27.51783        -1.54268
C         23.00204        28.86970        -1.30138
C         22.96017        31.73693        -0.63133
C         22.91449        33.07901        -0.42152
C         22.95762        36.02612         0.09610
C         22.97168        37.38678         0.36152
C         22.98288        40.26214         0.76482
C         22.98082        41.63033         0.94423
C         23.00623        44.55651         1.29355
C         23.02161        45.97024         1.32193
C         25.45336        24.69357        -1.74044
C         24.26433        25.38963        -1.76298
C         25.46267        27.47600        -1.27393
C         24.24029        26.78932        -1.53156
C         25.43901        28.88354        -1.00118
C         24.20574        29.58607        -1.01865
C         25.41892        31.68774        -0.62430
C         24.19782        31.00945        -0.79999
C         25.44399        33.15718        -0.63468
C         24.11408        33.91068        -0.56897
C         25.39481        36.00226        -0.02601
C         24.15199        35.32382        -0.12791
C         25.40987        37.40754         0.22241
C         24.18352        38.10831         0.39889
C         25.42389        40.25213         0.64627
C         24.19131        39.54244         0.61215
C         25.42121        41.66462         0.85414
C         24.19086        42.36349         1.00037
C         25.45899        44.46413         1.45312
C         24.17017        43.79546         1.23829
C         25.47860        46.00805         1.52731
C         24.20587        46.70061         1.31736
C         25.43018        48.80674         1.05495
C         24.24650        48.11999         1.12294
C         28.01238        23.24895        -1.68236
C         27.94156        24.62446        -1.51578
C         26.69394        25.35438        -1.51304
C         27.92221        27.44751        -0.93984
C         26.69020        26.75649        -1.28264
C         27.88839        28.85512        -0.62232
C         26.66295        29.57018        -0.69062
C         27.85869        31.68165        -0.16205
C         26.64655        30.98245        -0.49356
C         27.85344        33.12983        -0.00880
C         26.66647        33.86474        -0.22455
C         27.88107        35.97469         0.05312
C         26.64659        35.27422        -0.08013
C         27.88683        37.41248         0.16352
C         26.66040        38.12420         0.27544
C         27.90511        40.24942         0.44367
C         26.66357        39.53910         0.46505
C         27.92652        41.68270         0.63560
C         26.67863        42.39337         0.84777
C         27.94528        44.54294         0.77380
C         26.68772        43.76304         1.07102
C         27.92788        45.99817         1.19137
C         26.75309        46.72628         1.28282
C         27.91160        48.87023         0.83810
C         26.71854        48.16123         1.11159
C         27.94035        50.20533         0.33266
C         30.46108        23.19922        -1.42051
C         29.23903        22.55757        -1.68556
C         30.46808        24.61038        -1.16902
C         29.23216        25.40517        -1.53417
C         30.30967        27.39717        -0.31693
C         29.11844        26.75126        -0.88115
C         30.33168        28.85309        -0.18904
C         29.10012        29.55107        -0.30686
C         30.26677        31.59354         0.48614
C         29.04958        30.95269        -0.03302
C         30.28519        33.10767         0.59582
C         29.06733        33.84364         0.20139
C         30.41782        35.94118        -0.09937
C         29.09588        35.24271         0.11324
C         30.37673        37.41698         0.18779
C         29.13369        38.11984         0.20401
C         30.38554        40.29795         0.00907
C         29.11653        39.54017         0.28808
C         30.38412        41.69910         0.56042
C         29.16307        42.36309         0.75862
C         30.44736        44.54566         0.93402
C         29.17668        43.79491         1.27677
C         30.45827        45.94600         0.94607
C         29.21463        46.67688         1.26267
C         30.44152        48.85033         0.56228
C         29.20857        48.22529         1.06255
C         30.39894        50.20210         0.14803
C         29.12022        50.85183         0.05442
C         32.94383        20.36895        -1.44320
C         31.74992        21.06441        -1.50944
C         32.92388        23.16339        -1.08431
C         31.70539        22.46496        -1.32919
C         32.90579        24.56981        -0.82513
C         31.65058        25.25704        -0.81637
C         32.87781        27.41493        -0.19576
C         31.62349        26.64425        -0.29256
C         32.84031        28.78764         0.11888
C         31.56530        29.51272         0.14030
C         32.73565        31.55284         1.06490
C         31.54258        30.87109         0.44840
C         32.74617        33.06043         0.86696
C         31.59845        33.80005         0.64876
C         32.79223        35.95649         0.67343
C         31.61941        35.23604         0.49586
C         32.83565        37.38713         0.50864
C         31.60935        38.11433         0.33018
C         32.85032        40.22871         0.49597
C         31.63629        39.53287         0.34253
C         32.85831        41.67093         0.55079
C         31.62831        42.38686         0.64275
C         32.88149        44.52613         0.63346
C         31.65003        43.82094         0.75556
C         32.88107        45.95357         0.57921
C         31.66147        46.67563         0.71011
C         32.87155        48.78121         0.20198
C         31.65550        48.10712         0.52724
C         32.86206        50.18401        -0.09239
C         31.62478        50.88967        -0.15150
C         32.83288        52.94788        -0.67995
C         31.65103        52.27980        -0.46914
C         35.44526        18.89482        -1.11923
C         35.41902        20.30924        -1.15338
C         34.16930        21.03592        -1.22424
C         35.38963        23.16539        -0.88485
C         34.16287        22.45136        -1.06684
C         35.36584        24.57533        -0.65159
C         34.11870        25.28148        -0.59187
C         35.33289        27.39800        -0.15157
C         34.10972        26.69805        -0.32859
C         35.31941        28.80196         0.16110
C         34.06485        29.51043         0.34371
C         35.25457        31.60777         0.90359
C         34.05162        30.88535         0.71239
C         35.28903        33.02233         1.06582
C         34.00702        33.74830         1.18335
C         35.31792        35.95692         0.91568
C         34.02482        35.27429         1.11176
C         35.31178        37.35446         0.72919
C         34.06757        38.08036         0.61815
C         35.31899        40.22370         0.64421
C         34.08286        39.50866         0.58759
C         35.32931        41.64812         0.61959
C         34.09462        42.37078         0.58660
C         35.34302        44.50538         0.48472
C         34.10677        43.80046         0.56763
C         35.34032        45.92951         0.35386
C         34.11170        46.65183         0.37851
C         35.33503        48.75470        -0.04879
C         34.10534        48.06350         0.18582
C         35.32769        50.15720        -0.31179
C         34.09149        50.86823        -0.35406
C         35.31708        52.96389        -0.85590
C         34.09066        52.27529        -0.62542
C         35.37595        54.41285        -0.88568
C         37.87720        18.87491        -1.03569
C         36.63453        18.19663        -1.03720
C         37.86648        20.28784        -1.08585
C         36.64930        21.02096        -1.09988
C         37.83945        23.19074        -0.81962
C         36.63688        22.46743        -0.96661
C         37.83264        24.57985        -0.52088
C         36.58945        25.28142        -0.45581
C         37.80588        27.38338        -0.03019
C         36.57638        26.69160        -0.21278
C         37.79571        28.79459         0.20868
C         36.54050        29.47129         0.33914
C         37.81203        31.57089         1.03993
C         36.52166        30.84564         0.87726
C         37.77984        33.05895         1.23811
C         36.49585        33.77889         1.10214
C         37.78844        35.91648         0.79941
C         36.52762        35.20471         0.99108
C         37.77923        37.36648         0.69710
C         36.55304        38.07760         0.70863
C         37.78639        40.22049         0.77359
C         36.55452        39.50561         0.69203
C         37.79694        41.65610         0.73104
C         36.57141        42.36153         0.63472
C         37.80783        44.50271         0.45209
C         36.57332        43.79154         0.52258
C         37.80180        45.91628         0.25475
C         36.57046        46.62859         0.19553
C         37.79761        48.74014        -0.22125
C         36.56783        48.04314        -0.01493
C         37.77442        50.12222        -0.53554
C         36.56018        50.83015        -0.59005
C         37.76036        52.92609        -1.18785
C         36.54946        52.24335        -0.91826
C         37.71062        54.33940        -1.71776
C         36.51383        55.08049        -1.18519
C         40.37674        16.04324        -1.03870
C         39.18199        16.73685        -1.08280
C         40.36897        18.86073        -0.86105
C         39.14323        18.15106        -0.99902
C         40.39605        20.29237        -0.85808
C         39.14870        21.00275        -1.17243
C         40.36739        23.17788        -0.58562
C         39.13279        22.52089        -1.02911
C         40.31876        24.56948        -0.30595
C         39.06897        25.27663        -0.31486
C         40.27844        27.38893         0.10424
C         39.05131        26.68002        -0.07650
C         40.26242        28.81261         0.25620
C         39.02925        29.49562         0.30724
C         40.30620        31.68352         0.56262
C         38.99251        31.00025         0.27218
C         40.32266        33.06352         0.72047
C         39.07372        33.80472         1.04101
C         40.26542        35.90754         0.40640
C         39.00097        35.23246         0.73436
C         40.27333        37.41356         0.44285
C         38.99834        38.10544         0.69910
C         40.28364        40.22071         1.18545
C         39.00757        39.49896         0.81890
C         40.27762        41.67965         0.80787
C         39.04872        42.37097         0.71214
C         40.27268        44.51944         0.56054
C         39.04474        43.79619         0.56036
C         40.24539        45.93461         0.41070
C         39.03798        46.63250         0.17515
C         40.27976        48.76448        -0.15406
C         39.04661        48.04378        -0.08511
C         40.30007        50.16561        -0.45113
C         39.04553        50.77181        -1.02610
C         40.20572        53.00321        -0.99458
C         39.01389        52.27932        -1.01454
C         40.21800        54.41514        -1.29031
C         39.01816        55.09049        -1.60786
C         40.24839        57.15612        -1.97603
C         39.05276        56.45956        -1.94041
C         42.84874        16.03174        -0.85224
C         41.60769        16.72958        -0.88870
C         42.83494        18.85690        -0.61452
C         41.60518        18.14962        -0.78202
C         42.82651        20.28781        -0.46885
C         41.58466        21.00376        -0.63193
C         42.78683        23.13416        -0.17948
C         41.57478        22.44689        -0.49608
C         42.77187        24.54882        -0.00870
C         41.53613        25.26755        -0.06107
C         42.75073        27.39044         0.23750
C         41.51906        26.68371         0.10260
C         42.74459        28.81519         0.32514
C         41.51384        29.52853         0.34075
C         42.76659        31.65532         0.51245
C         41.52757        30.95096         0.46276
C         42.78455        33.07815         0.56762
C         41.55510        33.79163         0.65488
C         42.76816        35.93316         0.53326
C         41.55450        35.20752         0.58041
C         42.77638        37.37880         0.55425
C         41.55822        38.11135         0.63987
C         42.77630        40.21746         0.76825
C         41.55736        39.49889         0.81225
C         42.75692        41.65284         0.74102
C         41.50999        42.37274         0.72533
C         42.76030        44.47570         0.48252
C         41.51825        43.79988         0.62148
C         42.80494        45.94705         0.55754
C         41.47271        46.71429         0.56548
C         42.73467        48.81253         0.09371
C         41.50672        48.12152         0.15994
C         42.73650        50.22962        -0.13958
C         41.47997        50.88981        -0.37540
C         42.73082        53.04170        -0.82309
C         41.44573        52.39900        -0.37976
C         42.71941        54.41615        -1.18293
C         41.46708        55.11177        -1.35930
C         42.71665        57.16311        -1.88851
C         41.47643        56.48941        -1.72064
C         44.03225        16.71635        -0.71543
C         45.29468        18.85394        -0.39909
C         44.05901        18.13717        -0.58607
C         45.26744        20.25414        -0.12760
C         44.02390        20.97468        -0.18179
C         45.19898        23.10570         0.29910
C         44.01758        22.41482        -0.01558
C         45.22124        24.52909         0.36770
C         43.99262        25.25110         0.21551
C         45.21942        27.37995         0.39795
C         43.98537        26.67444         0.28951
C         45.22375        28.80092         0.37841
C         43.98933        29.51985         0.37764
C         45.23352        31.65179         0.39460
C         43.99744        30.93873         0.44033
C         45.24792        33.08305         0.41604
C         44.01875        33.79651         0.50672
C         45.24898        35.93997         0.50048
C         44.01277        35.22458         0.52484
C         45.25224        37.36605         0.52988
C         44.01403        38.08202         0.58546
C         45.25171        40.22389         0.63581
C         44.01771        39.51278         0.64958
C         45.24132        41.65648         0.62235
C         43.97673        42.35177         0.59018
C         45.21828        44.43439         0.03195
C         43.96264        43.75786         0.40343
C         45.21190        45.94989        -0.14491
C         43.98811        46.69087         0.15931
C         45.22867        48.79960        -0.07224
C         43.98698        48.08859         0.11344
C         45.21219        50.22660        -0.16183
C         43.95885        50.93792        -0.21971
C         45.17376        53.02066        -0.73534
C         43.96172        52.35263        -0.58350
C         45.25554        54.36793        -1.39381
C         43.94011        55.11371        -1.40406
C         43.91350        56.47548        -1.75841
C         47.72266        18.88081        -0.20921
C         46.55115        18.19794        -0.45147
C         47.70797        20.25549         0.15046
C         46.48043        20.93443         0.17483
C         47.71395        23.10357         0.56932
C         46.42235        22.33727         0.72351
C         47.70279        24.50794         0.65330
C         46.44384        25.23558         0.57254
C         47.67019        27.38759         0.66466
C         46.45340        26.66179         0.55112
C         47.70756        28.78308         0.45575
C         46.46247        29.51322         0.33094
C         47.68349        31.66216         0.01829
C         46.44432        30.92229         0.27496
C         47.71882        33.11238         0.23377
C         46.48777        33.80379         0.37725
C         47.72786        35.93630         0.42239
C         46.48778        35.22994         0.44216
C         47.73002        37.36819         0.47887
C         46.49189        38.07357         0.51694
C         47.72899        40.19595         0.59134
C         46.49626        39.50392         0.56845
C         47.70606        41.64779         0.86123
C         46.44893        42.38931         0.65858
C         47.69233        44.52764         0.29015
C         46.49688        43.78373         0.36441
C         47.67451        45.92554         0.00223
C         46.48580        46.66437        -0.06933
C         47.70360        48.81932        -0.18252
C         46.46884        48.09865        -0.10167
C         47.68378        50.24729        -0.24616
C         46.44252        50.92506        -0.24046
C         47.69117        53.11943        -0.46979
C         46.40630        52.42095        -0.12096
C         47.59561        54.54596        -0.54566
C         46.41589        55.16256        -0.84636
C         50.16822        20.28014         0.56759
C         48.95221        20.96249         0.45653
C         50.17758        23.09272         0.78191
C         48.94543        22.38970         0.60199
C         50.15628        24.52584         0.88173
C         48.92878        25.21443         0.80240
C         50.19545        27.39658         0.89307
C         48.89864        26.67726         1.16213
C         50.19049        28.79147         0.68286
C         48.95862        29.47215         0.45462
C         50.23151        31.66104         0.30559
C         49.00214        30.88783         0.08876
C         50.20705        33.07060         0.27374
C         48.95598        33.79785         0.25827
C         50.20213        35.93986         0.37719
C         48.96052        35.22408         0.35676
C         50.20559        37.36762         0.46082
C         48.96833        38.07935         0.50391
C         50.22803        40.21382         0.63523
C         48.97094        39.50967         0.56595
C         50.26089        41.72112         0.45723
C         48.98352        42.40922         0.91823
C         50.27536        44.52590         0.39417
C         48.96339        43.94330         0.89009
C         50.26277        45.92933        -0.08821
C         48.93807        46.64935        -0.25922
C         50.16555        48.82193        -0.32589
C         48.94613        48.12281        -0.23812
C         50.15853        50.26014        -0.40400
C         48.92518        50.96890        -0.36230
C         50.16025        53.07573        -0.63987
C         48.91291        52.40626        -0.47074
C         51.36445        20.96063         0.79653
C         52.64978        23.06001         1.15306
C         51.40219        22.36045         0.89789
C         52.60293        24.50914         1.37176
C         51.37857        25.25866         1.09122
C         52.67702        27.39153         0.92703
C         51.41479        26.67518         1.01677
C         52.66815        28.81466         0.72181
C         51.44119        29.51773         0.61313
C         52.68110        31.65875         0.45040
C         51.44542        30.94031         0.46648
C         52.67258        33.09051         0.35184
C         51.44522        33.79622         0.32589
C         52.66548        35.95785         0.29479
C         51.43438        35.23248         0.33385
C         52.67330        37.38092         0.35563
C         51.44149        38.08263         0.50129
C         52.73134        40.22219         0.78094
C         51.42796        39.51268         0.64615
C         52.77387        41.71949         0.96354
C         51.43527        42.45556         1.15038
C         52.74345        44.60351         0.63006
C         51.44664        43.88218         0.63465
C         52.73254        46.08996         0.37735
C         51.46255        46.75454         0.04189
C         52.67681        48.85234        -0.34466
C         51.43110        48.11868        -0.23198
C         52.65145        50.25159        -0.55181
C         51.39322        50.96947        -0.53773
C         51.35070        52.38232        -0.66059
C         55.11049        23.12465         1.15586
C         53.88187        22.42214         1.19047
C         55.18024        24.50779         1.06848
C         53.96064        25.28661         1.31337
C         55.13518        27.38028         0.66080
C         53.90716        26.70816         0.95634
C         55.14785        28.79393         0.54254
C         53.91001        29.52909         0.62531
C         55.16331        31.69440         0.51851
C         53.89808        30.94039         0.52480
C         55.14812        33.13177         0.20585
C         53.91270        33.81855         0.24300
C         55.12784        35.94957         0.05781
C         53.89552        35.24057         0.18529
C         55.13422        37.37358         0.12273
C         53.93168        38.09336         0.27694
C         55.17675        40.25662         0.24476
C         53.96207        39.52034         0.37952
C         55.17405        41.70949         0.23178
C         53.98919        42.44473         0.49549
C         55.17664        44.56602         0.05746
C         53.99040        43.85238         0.37843
C         55.16563        46.01078        -0.12229
C         53.97338        46.74846        -0.05459
C         55.14538        48.84302        -0.58981
C         53.92819        48.14695        -0.33811
C         55.08440        50.24781        -0.80316
C         53.88741        50.92583        -0.77119
C         57.63876        24.55640         0.64169
C         56.40396        25.22231         0.74554
C         57.56093        27.33105         0.21078
C         56.36276        26.64078         0.55356
C         57.53895        28.74189        -0.01319
C         56.37773        29.46143         0.23836
C         57.62911        31.64746        -0.21092
C         56.45060        30.93403         0.32530
C         57.60280        33.06418        -0.32269
C         56.36223        33.81278        -0.07915
C         57.51386        35.97453        -0.62664
C         56.32886        35.22018        -0.17533
C         57.61523        37.40285        -0.32545
C         56.44725        38.08548         0.33099
C         57.61191        40.25919        -0.18533
C         56.39594        39.56496         0.05480
C         57.61199        41.69190        -0.23442
C         56.38694        42.41376        -0.04226
C         57.61618        44.54554        -0.38481
C         56.38924        43.84095        -0.11853
C         57.60882        45.97011        -0.51896
C         56.38562        46.70333        -0.42665
C         57.62792        48.77724        -0.85763
C         56.38570        48.11352        -0.61970
C         58.82511        25.25353         0.40193
C         60.03887        27.40071         0.06390
C         58.80866        26.63524         0.18663
C         60.02748        28.71830        -0.22775
C         58.74541        29.39323        -0.65520
C         59.91357        31.59325        -1.00850
C         58.77127        30.90807        -0.57480
C         59.92682        32.98486        -1.06012
C         58.78256        33.73008        -0.74433
C         60.03639        35.97619        -0.87135
C         58.79216        35.20391        -0.94170
C         60.01457        37.33147        -0.78749
C         58.80133        38.08175        -0.52808
C         60.02128        40.26093        -0.57206
C         58.83175        39.53689        -0.39617
C         60.02739        41.64948        -0.58379
C         58.83510        42.39118        -0.44440
C         60.03843        44.56159        -0.75473
C         58.83699        43.83761        -0.52216
C         60.03731        45.93408        -0.87060
C         58.82533        46.66364        -0.77011
C         58.80803        48.08002        -0.92311
O         39.25301        21.87944        -2.35029
O         52.82165        45.55268         1.76014
O         40.22714        36.69044        -0.84634
O         38.57209        33.47836         2.40103
O         53.29878        24.96593         2.57448
O         42.20161        46.44545         1.80666
O         33.91660        34.58072         2.39539
O         52.98826        40.85113         2.12831
O         29.35231        47.60193         2.37715
O         30.04585        32.28571         1.79728
O         48.36365        31.20659        -1.20285
O         56.05036        31.39426         1.66733
O         57.89058        35.63570        -2.01591
O         30.80490        26.72063         0.93264
O         25.53770        45.18715         2.73464
O         48.42919        41.90625         2.15819
O         37.30304        30.84598         2.17477
O         45.13590        45.03665        -1.30851
O         24.81872        33.72027        -1.84180
O         49.64242        46.07520        -1.42510
O         29.08400        43.73029         2.72103
H         29.89140        43.29418         3.06323
O         37.47549        54.20065        -3.17720
H         36.58536        53.80197        -3.28491
O         39.10942        50.42366        -2.46226
H         38.36245        50.87979        -2.90549
O         46.26507        22.16719         2.18861
H         47.05424        21.68030         2.50951
O         40.29376        40.21187         2.66691
H         39.52555        40.74229         2.96893
O         48.75660        26.69637         2.64595
H         49.55433        26.25861         3.01491
O         30.41601        40.46325        -1.47214
H         29.67045        41.05675        -1.70734
O         46.25408        52.67909         1.34072
H         47.00806        52.23880         1.78898
O         56.70471        37.97245         1.79238
H         55.99148        38.46891         2.24945
O         58.61162        29.10842        -2.09521
H         58.62342        28.13326        -2.20109
O         30.63623        35.84072        -1.56906
H         30.01100        36.46240        -2.00030
O         51.14419        42.53463         2.55830
H         51.64402        41.80426         2.99729
O         48.92101        44.40013         2.27381
H         49.54085        43.82265         2.78135
O         45.56835        54.10076        -2.82135
H         45.46579        54.94719        -3.30647
O         32.57796        31.35488         2.51108
H         31.69206        31.72492         2.74470
O         38.68229        31.36595        -1.12502
H         39.40875        31.02896        -1.69169
O         28.07525        44.56408        -0.68868
H         27.27002        44.98020        -1.06180
O         41.34241        52.76475         1.05624
H         40.54413        52.32173         1.41586
O         50.42451        41.95332        -0.96779
H         49.75623        41.42509        -1.45254
O         29.45000        25.72554        -2.97919
H         29.40909        24.87364        -3.46567
H         22.07978        26.98267        -1.75428
H         22.04418        29.40506        -1.33781
H         22.02335        31.16783        -0.55716
H         21.96102        33.54745        -0.14020
H         21.99171        35.50791         0.03135
H         22.01183        37.89553         0.51362
H         22.01780        39.74079         0.73944
H         22.01906        42.14620         1.06169
H         22.02629        44.06651         1.21222
H         22.06450        46.50671         1.24632
H         25.43555        23.61046        -1.92038
H         23.31911        24.86255        -1.95719
H         25.39464        49.89821         0.93574
H         23.29391        48.66405         1.04283
H         27.09526        22.65463        -1.79672
H         26.99645        50.74649         0.17974
H         29.20898        21.47201        -1.84355
H         29.07049        51.89031        -0.29833
H         32.92336        19.28100        -1.58718
H         30.82756        20.50057        -1.69971
H         32.79872        54.02003        -0.91581
H         30.71148        52.84464        -0.53102
H         34.50630        18.32627        -1.12900
H         34.48835        54.98249        -0.57532
H         36.59857        17.10093        -0.98351
H         36.52966        56.17912        -1.14437
H         40.38026        14.94684        -1.12025
H         38.25027        16.16845        -1.20230
H         40.26290        58.22026        -2.25193
H         38.12034        56.97939        -2.20096
H         42.84876        14.93561        -0.93828
H         42.71807        58.22692        -2.16562
H         44.97096        16.14749        -0.68805
H         44.85644        57.01145        -1.94102
H         48.67403        18.33821        -0.28233
H         46.60701        17.13038        -0.70096
H         48.48292        55.16497        -0.33862
H         46.35974        56.26060        -0.81985
H         50.20237        19.18589         0.48724
H         50.17886        54.16903        -0.74256
H         52.28609        20.37320         0.89862
H         52.28143        52.95341        -0.77240
H         56.02524        22.52342         1.06228
H         53.93456        21.32744         1.11580
H         56.00288        50.81732        -0.99603
H         53.89990        52.01004        -0.94195
H         57.69246        23.47093         0.79861
H         57.64891        49.86655        -0.99220
H         59.78231        24.71278         0.39074
H         60.98774        26.88346         0.27293
H         60.97418        29.27492        -0.28254
H         60.80461        31.03688        -1.32890
H         60.83321        33.49648        -1.41121
H         61.00121        35.44938        -0.88326
H         60.97487        37.86438        -0.78675
H         60.97594        39.73897        -0.71590
H         60.98755        42.16130        -0.72563
H         60.99302        44.02854        -0.85048
H         60.97636        46.47544        -1.05455
H         59.75483        48.60763        -1.10786
