         324
 CSIRO Nanostructure Databank - Neutral Graphene Oxide Data Set
C         30.39452        57.15645        -0.76169
C         30.34948        58.54666        -0.76932
C         29.14407        59.29532        -0.58818
C         30.39219        61.40113        -0.43695
C         29.17842        60.67049        -0.44443
C         32.86603        52.89595         0.09043
C         32.85435        54.32706        -0.04644
C         31.65037        55.02491        -0.37367
C         32.83758        57.15439        -0.48831
C         31.62939        56.43365        -0.59082
C         32.91822        58.55967        -0.82945
C         31.58819        59.32364        -0.95865
C         32.86574        61.44551        -0.57684
C         31.61621        60.76765        -0.66273
C         35.33669        48.64624         0.45021
C         35.29761        50.05220         0.57474
C         34.06925        50.77561         0.43835
C         35.19795        52.93548         0.96566
C         34.00713        52.18151         0.48802
C         35.25537        54.41098         0.66871
C         34.05433        55.05011         0.11247
C         35.32695        57.17920        -0.30250
C         34.03451        56.54332         0.17100
C         35.33250        58.65618        -0.37136
C         34.15487        59.32913        -0.54607
C         35.32555        61.49388        -0.33319
C         34.10272        60.78593        -0.53103
C         37.85599        44.34404         0.68306
C         37.81523        45.80465         0.62359
C         36.59691        46.50348         0.45327
C         37.77905        48.67935         0.47451
C         36.56047        47.93161         0.47550
C         37.74072        50.07997         0.63884
C         36.52609        50.76770         0.75261
C         37.75954        53.00097         1.21187
C         36.46097        52.16096         1.35147
C         37.74427        54.44560         0.84553
C         36.56858        55.09349         0.55963
C         37.81033        57.29198         0.28175
C         36.60849        56.46777        -0.00378
C         37.79134        58.65621         0.17723
C         36.64065        59.36942        -0.46813
C         37.77440        61.55061        -0.05519
C         36.55743        60.84631        -0.21200
C         40.34239        40.04470         0.54552
C         40.32439        41.42479         0.63137
C         38.98391        42.10416         0.86257
C         40.30145        44.29579         0.99559
C         39.00671        43.61668         0.77807
C         40.26066        45.80574         0.98593
C         39.02545        46.51864         0.65269
C         40.20074        48.68657         1.25912
C         39.10731        47.98360         0.33501
C         40.26297        50.14117         0.94429
C         39.02803        50.84244         0.46534
C         40.27806        53.02345         0.57882
C         39.04570        52.28012         0.94684
C         40.25738        54.44467         0.57869
C         39.01624        55.15154         0.68023
C         40.27038        57.26442         0.60332
C         39.03294        56.55861         0.58684
C         40.24917        58.74087         0.78907
C         38.90970        59.48159         0.77516
C         40.21364        61.58034         0.11564
C         38.99098        60.89331         0.20520
C         42.74078        35.68538         0.05510
C         42.77593        37.19366         0.15702
C         41.58636        37.89255         0.31490
C         42.77425        40.02990         0.20788
C         41.55576        39.31308         0.36433
C         42.76910        41.46575         0.29002
C         41.55753        42.16061         0.54054
C         42.77948        44.29415         0.56287
C         41.58230        43.59012         0.69162
C         42.78747        45.78144         0.53294
C         41.52627        46.54094         0.72097
C         42.84382        48.69674         0.86402
C         41.56021        47.98326         1.12924
C         42.78206        50.11682         0.43948
C         41.48021        50.82980         0.47591
C         42.70824        53.01468         0.30029
C         41.49037        52.32116         0.45355
C         42.71513        54.43496         0.20535
C         41.47721        55.16019         0.38695
C         42.82523        57.28795         0.50340
C         41.48098        56.57806         0.48143
C         42.74345        58.76764         0.22592
C         41.51648        59.50253         0.55709
C         42.69165        61.62086         0.07626
C         41.47470        60.95081         0.24446
C         45.35429        32.97409         0.65281
C         44.12063        33.64542         0.52169
C         45.28894        35.74911         0.17690
C         44.07741        35.01517         0.27916
C         45.27876        37.17214        -0.02140
C         44.00851        37.89850         0.00436
C         45.21276        40.05734        -0.27643
C         43.97867        39.30631        -0.01149
C         45.22444        41.51780        -0.05954
C         43.99976        42.19807         0.16027
C         45.24037        44.32022         0.07106
C         44.01582        43.61486         0.29262
C         45.33609        45.76927         0.35267
C         44.08478        46.50992         0.69619
C         45.22743        48.65368         0.15200
C         44.08026        47.96960         0.49687
C         45.19691        50.11532         0.04365
C         44.06218        50.83569         0.29005
C         45.16540        53.04518        -0.22502
C         44.04505        52.33075         0.46762
C         45.13729        54.43272        -0.34140
C         43.91412        55.13663        -0.10997
C         45.12143        57.34138        -0.70903
C         43.76867        56.59327        -0.49783
C         45.14714        58.74522        -0.17250
C         43.91059        59.46569        -0.00113
C         45.17547        61.57262         0.12816
C         43.93589        60.92366         0.06421
C         46.54466        33.66453         0.53198
C         47.76126        35.78882         0.18736
C         46.54431        35.06919         0.29758
C         47.76973        37.18085        -0.00100
C         46.49873        37.85006        -0.09612
C         47.76330        40.03630         0.01072
C         46.50894        39.30113        -0.32229
C         47.72333        41.52739        -0.04380
C         46.42454        42.22526        -0.20522
C         47.64082        44.36015        -0.76110
C         46.42034        43.63899        -0.23136
C         47.69946        45.83704        -0.43845
C         46.52010        46.53964        -0.07189
C         47.69434        48.66714        -0.36896
C         46.48506        47.94624        -0.08398
C         47.70095        50.08761        -0.49252
C         46.40071        50.79879        -0.49142
C         47.62808        53.03406        -0.73450
C         46.36088        52.29501        -0.62828
C         47.62353        54.40948        -0.68416
C         46.38422        55.16413        -0.55924
C         47.59147        57.29164        -0.21586
C         46.37885        56.55420        -0.45393
C         47.58036        58.64570         0.07202
C         46.35003        59.39672         0.04824
C         47.64095        61.49201         0.32722
C         46.39609        60.84524         0.20709
C         49.00103        37.91509        -0.11445
C         50.22539        40.09584        -0.19121
C         49.05305        39.32225        -0.13972
C         50.21306        41.53294        -0.25959
C         48.98043        42.25531        -0.27376
C         50.15045        44.34973        -0.68011
C         48.95270        43.64206        -0.50718
C         50.10095        45.78314        -1.15255
C         48.88344        46.52976        -0.66517
C         50.12960        48.66724        -0.83495
C         48.90789        47.95462        -0.60379
C         50.13214        50.08174        -0.86043
C         48.88517        50.78190        -0.77217
C         50.18763        52.98876        -0.91779
C         48.85509        52.24699        -1.00430
C         50.17216        54.41754        -0.58557
C         48.90462        55.15341        -0.76285
C         50.12394        57.24484         0.11415
C         48.89105        56.61080        -0.40458
C         50.07214        58.55908         0.51741
C         48.77361        59.29388         0.72356
C         50.09070        61.43384         0.61792
C         48.86387        60.78695         0.49116
C         51.41314        42.27645        -0.38839
C         52.62110        44.43486        -0.68563
C         51.39632        43.66960        -0.58519
C         52.62422        45.80740        -0.83098
C         51.38165        46.54685        -0.93297
C         52.63690        48.68032        -1.27619
C         51.36928        47.92470        -0.94741
C         52.63931        50.10437        -0.77584
C         51.39638        50.80908        -0.80444
C         52.60092        52.90986        -0.35472
C         51.40332        52.20818        -0.65452
C         52.59292        54.33278        -0.18640
C         51.34813        55.07487        -0.24388
C         52.58089        57.11445         0.37609
C         51.36069        56.48732         0.08155
C         52.59478        58.49802         0.87899
C         51.27843        59.25945         0.97173
C         52.54478        61.38403         0.94550
C         51.32166        60.73772         0.86161
C         53.86490        46.56871        -0.78699
C         55.21165        48.65380        -0.97606
C         53.89638        47.91590        -0.94347
C         55.13178        50.08599        -0.50338
C         53.83260        50.76784        -0.46876
C         55.02665        52.88824         0.04414
C         53.81423        52.17887        -0.20295
C         55.03819        54.27805         0.03199
C         53.81509        55.01371        -0.01414
C         55.05278        57.13530         0.41057
C         53.82596        56.43700         0.22486
C         55.05145        58.56232         0.65004
C         53.84076        59.26293         0.80971
C         55.02972        61.37743         1.02067
C         53.81042        60.68451         0.96511
C         56.27252        50.73280        -0.15603
C         57.52799        52.88629         0.36427
C         56.24653        52.10735         0.46181
C         57.55989        54.25634         0.26016
C         56.32589        55.02228        -0.13399
C         57.50841        57.13440         0.48460
C         56.29858        56.45188         0.31737
C         57.51436        58.55764         0.69169
C         56.28471        59.26815         0.75123
C         57.50654        61.37378         1.06176
C         56.27434        60.69211         0.94997
C         58.76860        55.00057         0.39927
C         59.97368        57.13173         0.61814
C         58.77121        56.40971         0.47199
C         59.98460        58.54049         0.77739
C         58.74055        59.25700         0.82350
C         59.98239        61.35656         1.12705
C         58.73535        60.67940         1.00428
C         61.19468        59.26319         0.90792
C         61.18053        60.65201         1.07781
O         45.86669        39.71261        -1.57542
O         41.99728        50.24485        -0.82060
O         49.55705        52.66937        -2.21306
O         45.16196        57.53657        -2.24399
O         56.51802        55.10085        -1.67405
O         34.91487        53.89528         2.04207
O         38.66425        52.61749         2.30687
O         40.30040        45.06580         2.25665
O         42.04191        46.31607        -0.63518
O         32.34836        58.91993        -2.13695
O         47.69861        40.79335         1.26332
O         36.04861        56.51904        -1.38382
O         37.02912        59.27412        -1.98970
O         51.89300        58.68656         2.16714
O         48.98934        56.18063        -1.82502
O         55.75938        48.60833        -2.35051
O         41.05838        59.15739         1.95579
O         42.42740        48.34084         2.24763
O         46.11326        51.40734        -1.80986
O         44.94817        46.03792         1.76894
O         41.74409        35.13832         0.92751
H         42.01419        35.31773         1.85115
O         55.19037        49.71635        -3.09178
H         54.22836        49.45609        -3.18418
O         33.96973        56.90223         1.60735
H         33.44640        56.21127         2.06779
O         37.99395        41.55296        -0.01435
H         38.28166        41.70182        -0.93800
O         48.50661        59.15185         2.16951
H         47.75398        59.74250         2.38684
O         49.95231        45.69929        -2.61633
H         49.07610        45.26703        -2.78049
O         39.18107        50.97544        -0.98927
H         39.52417        50.10854        -1.32323
O         38.52022        59.66733         2.16931
H         39.35856        59.78486         2.67501
O         44.35371        52.49797         1.92066
H         44.23303        53.44861         2.13746
O         46.37479        58.21916        -2.59920
H         47.03263        57.48804        -2.72367
O         47.47801        44.33219        -2.23480
H         47.35817        43.39641        -2.50609
O         56.07379        51.86703         1.91485
H         55.24578        51.35303         2.02702
O         55.40502        55.82843        -2.22448
H         55.78799        56.71959        -2.41262
O         39.72065        48.45524         2.59890
H         40.46388        48.63911         3.21454
O         52.60728        48.80102        -2.75273
H         52.39738        47.91274        -3.11542
O         43.38594        57.13526         1.83416
H         42.81226        57.65030         2.44446
O         39.64271        48.18059        -1.01017
H         39.12926        47.62529        -1.63391
O         43.01541        56.60662        -1.73329
H         43.57542        56.23319        -2.44676
O         36.30514        51.86823         2.76372
H         35.99466        52.69710         3.19381
O         35.98416        59.88397        -2.75041
H         35.40982        59.12181        -3.01049
H         29.45234        56.59103        -0.70022
H         28.18644        58.75825        -0.53005
H         30.36985        62.48096        -0.23169
H         28.23795        61.21601        -0.28254
H         31.95861        52.33636        -0.18220
H         30.71202        54.45709        -0.45260
H         32.85138        62.54033        -0.46103
H         34.39150        48.08905         0.36827
H         33.16000        50.21618         0.17030
H         35.28662        62.58949        -0.23087
H         36.89935        43.80719         0.58844
H         35.65306        45.94337         0.38594
H         37.77519        62.64538        -0.18107
H         39.39468        39.49175         0.62531
H         38.65069        41.84196         1.90641
H         40.19276        62.64144        -0.17958
H         42.40702        35.42974        -0.99172
H         40.64703        37.32981         0.42015
H         42.69171        62.71510        -0.04174
H         45.36222        31.89153         0.84207
H         43.17879        33.08556         0.60855
H         45.20671        62.67122         0.18585
H         47.50563        33.13818         0.62360
H         48.71390        35.24374         0.26406
H         47.66792        62.59282         0.30677
H         49.94182        37.34425        -0.13705
H         51.20000        39.58599        -0.23251
H         50.12712        62.53023         0.51600
H         52.37840        41.74911        -0.35765
H         53.57808        43.90111        -0.58263
H         52.57093        62.48415         0.90781
H         54.80129        46.01529        -0.61079
H         55.96318        48.08911        -0.36656
H         55.02863        62.47144         1.13733
H         57.23510        50.20024        -0.19964
H         58.46339        52.34370         0.57576
H         57.50984        62.46426         1.20789
H         59.71513        54.45671         0.54075
H         60.93013        56.58733         0.61064
H         59.98879        62.44750         1.26385
H         62.15171        58.72307         0.87417
H         62.13233        61.19304         1.17575
