         320
 CSIRO Nanostructure Databank - Neutral Graphene Oxide Data Set
C         30.33553        31.57750         0.69180
C         30.27713        32.81539         0.79677
C         30.30841        35.95696         0.27463
C         30.29316        37.16312         0.01841
C         30.30991        40.35447        -0.28538
C         30.15229        41.55116        -0.64322
C         32.82661        28.81318         0.54363
C         31.67464        29.28162         0.67128
C         32.79496        31.57945         0.41633
C         31.35371        30.62190         1.17714
C         32.74398        33.01806         0.89678
C         31.41853        33.72844         1.05058
C         32.60934        36.01482         0.93071
C         31.26398        35.24003         1.16277
C         32.62633        37.33393         0.62107
C         31.29285        38.14428         0.60015
C         32.60930        40.29432         0.00892
C         31.39374        39.51141         0.00386
C         32.59522        41.67967        -0.13939
C         31.23296        42.49918        -0.13806
C         32.60762        44.39452        -0.89513
C         31.55696        43.74622        -0.91097
C         35.48396        27.57899        -0.72858
C         34.91951        28.90761        -0.83119
C         34.05713        29.41520         0.13245
C         35.37022        31.62578         0.46361
C         34.09783        30.84489         0.80967
C         35.36980        33.16508         0.63294
C         33.96136        33.89518         0.49679
C         35.78260        36.15258         0.95258
C         33.74315        35.13438         1.42555
C         35.17945        37.40300         0.75693
C         33.89886        38.11102         0.52106
C         35.19708        40.25477        -0.27849
C         33.89375        39.50777        -0.07358
C         35.12514        41.72653         0.00680
C         33.87558        42.41441        -0.54236
C         35.20635        44.56917        -0.55079
C         33.86775        43.93331        -0.18529
C         35.28539        46.09404        -0.30047
C         37.72698        27.30574         0.54176
C         36.55692        27.05567        -0.40148
C         37.88297        28.81845         0.46266
C         36.83259        29.61738         0.89766
C         37.71387        31.62936        -0.37874
C         36.59272        30.99252         0.43512
C         37.81993        33.11866        -0.17750
C         36.47902        33.85386        -0.22139
C         37.77148        35.95147        -0.44424
C         36.61604        35.35498        -0.00415
C         37.83554        37.41959        -0.54403
C         36.57733        38.21374        -0.78247
C         37.67684        40.24856         0.19780
C         36.54049        39.60192        -0.19635
C         37.68915        41.70520         0.70004
C         36.36738        42.46580         0.41373
C         37.71831        44.66627         0.01239
C         36.38622        44.01292         0.37959
C         37.75219        46.04699        -0.11142
C         36.42086        46.58743        -0.23976
C         40.17893        24.42014         0.34520
C         39.18537        25.16202         0.42613
C         40.20972        27.21680         0.00385
C         39.01653        26.59182         0.26706
C         40.21522        28.61265        -0.52487
C         38.87248        29.37644        -0.54214
C         40.19524        31.60409        -0.96444
C         39.06512        30.88872        -0.18347
C         40.27993        33.06645        -0.54137
C         39.03735        33.75309        -0.37656
C         40.33526        35.95795        -0.70846
C         39.09435        35.23970        -0.12632
C         40.35313        37.33458         0.00422
C         39.09415        38.14468        -0.25817
C         40.30505        40.26616         0.11531
C         39.01553        39.51125         0.39245
C         40.26152        41.72649         0.50829
C         38.91931        42.39688         0.04688
C         40.23334        44.55500        -0.35837
C         38.99732        43.93647         0.34735
C         40.28035        46.08752        -0.36126
C         38.97465        46.79323        -0.21780
C         40.24739        48.88184        -0.09836
C         39.20023        48.14886        -0.20206
C         42.81311        24.39486        -0.04515
C         41.43958        24.92521        -0.34690
C         42.80438        27.20716        -0.09355
C         41.50750        26.42774         0.23823
C         42.81353        28.67698        -0.35306
C         41.51214        29.35055        -0.72304
C         42.83146        31.58045        -0.75011
C         41.53820        30.84931        -0.91251
C         42.77119        32.96725        -0.10794
C         41.52843        33.78014        -0.45671
C         42.86575        35.95261        -0.50753
C         41.57803        35.16784        -0.39118
C         42.84258        37.43167        -0.10237
C         41.60629        38.16114        -0.18491
C         42.79771        40.32033         0.38911
C         41.51168        39.57624         0.03683
C         42.79035        41.76951        -0.11803
C         41.51400        42.52569         0.17290
C         42.73767        44.65445         0.60529
C         41.51862        43.88303         0.11003
C         42.84943        46.12242         0.16640
C         41.60650        46.86674        -0.20609
C         42.82258        48.90067         0.25950
C         41.52829        48.38448         0.01102
C         43.84963        25.05640        -0.11908
C         45.32328        27.20274        -0.32069
C         44.06767        26.44023        -0.62877
C         45.34680        28.57488        -0.33397
C         44.11242        29.30555        -0.87543
C         45.38428        31.54888        -0.21827
C         44.14584        30.82581        -0.64788
C         45.28168        32.97750         0.32202
C         44.10866        33.74141        -0.33504
C         45.31903        35.93052         0.11589
C         44.01236        35.19710         0.20530
C         45.33874        37.39303         0.48493
C         44.03939        38.09035         0.11191
C         45.34057        40.25033         0.53491
C         44.08882        39.58602        -0.09081
C         45.32484        41.73996         0.18448
C         44.04792        42.51586         0.28103
C         45.29575        44.59495         0.82893
C         44.04360        43.86287         0.47937
C         45.25814        46.12039         0.86498
C         44.01465        46.80986         0.46746
C         43.86851        48.23509         0.43031
C         47.74695        27.19172        -0.21381
C         46.64166        26.62865        -0.13298
C         47.99230        28.60176         0.22964
C         46.67793        29.34920        -0.38476
C         47.90227        31.60351        -0.08775
C         46.60700        30.77480         0.25233
C         47.78253        33.04039         0.43596
C         46.61399        33.71142         0.24061
C         47.81124        35.98368         0.29653
C         46.58735        35.17976        -0.18109
C         47.85592        37.37742        -0.39662
C         46.59341        38.15932         0.02792
C         47.87982        40.30760        -0.18760
C         46.60516        39.51453         0.09155
C         47.90720        41.69155         0.52079
C         46.61474        42.46604         0.29225
C         47.71440        44.62750        -0.25880
C         46.67518        43.91895         0.71982
C         47.64519        46.05249         0.25477
C         46.59315        46.63039         0.55121
C         50.58144        28.82986         0.26665
C         49.25418        29.38237        -0.18010
C         50.14225        31.56158         1.01874
C         49.12569        30.83298         0.40318
C         50.27471        32.98420         0.91256
C         49.00191        33.79677         0.93542
C         50.41800        35.85520         0.09706
C         49.10157        35.15852         0.22908
C         50.45970        37.38232        -0.34852
C         49.14921        38.07653         0.04908
C         50.41725        40.33986         0.31374
C         49.12733        39.54913         0.25818
C         50.36491        41.75114        -0.25715
C         49.09182        42.52048        -0.00176
C         50.31949        44.49932        -0.46065
C         49.02030        43.86999        -0.23271
C         51.72413        29.37240         0.26724
C         52.91495        31.66430         0.70761
C         52.16251        30.50175         0.98458
C         52.72211        32.84257         1.12303
C         51.53661        33.69640         1.15225
C         52.83571        35.95606         0.48104
C         51.62781        35.21942         0.78566
C         52.72937        37.20344         0.22299
C         51.71642        38.12785         0.14604
C         52.85372        40.47801        -0.05036
C         51.72742        39.58507         0.31245
C         52.83387        41.71057        -0.17319
C         51.88605        42.74054         0.29445
C         51.43842        43.93926        -0.42391
O         42.31016        31.32437        -2.09150
O         40.87109        28.66466        -1.85312
O         41.06374        46.52624        -1.52947
O         38.70568        38.02206        -1.64882
O         51.14269        40.13908         1.55921
O         46.05173        42.17909        -1.02299
O         33.96539        35.12366         2.63370
O         35.37323        42.01277         1.41488
O         49.02175        38.62900         1.38023
O         45.16714        45.35901         2.10134
O         32.17588        33.21580         2.22331
O         43.02837        28.17215         0.99682
O         35.86188        37.84497        -1.71818
O         45.10021        31.40881        -1.62091
O         49.85349        35.06929        -1.00150
O         51.44961        34.77532         2.14620
O         34.64369        38.12743         1.84348
O         39.18728        35.38140         1.27164
O         34.42375        39.76541        -1.41814
O         51.09456        30.89358         1.85305
O         31.42265        30.65166         2.55596
H         31.36141        31.59148         2.85455
O         46.91383        29.44473        -1.79579
H         46.08870        29.78598        -2.22260
O         46.70381        35.03318        -1.64000
H         45.95609        34.44000        -1.93423
O         46.47250        30.68040         1.68230
H         47.23076        30.14525         2.03357
O         45.33447        37.48687         1.97177
H         46.22139        37.13346         2.25410
O         33.92563        42.34012        -1.98311
H         33.94439        41.38250        -2.23222
O         35.77468        33.31063         2.00122
H         35.21284        32.73073         2.56166
O         36.04662        33.73741        -1.61595
H         36.70620        34.18444        -2.18723
O         41.56484        26.19819         1.65815
H         41.88691        27.02276         2.08577
O         35.52129        29.71606        -1.71129
H         36.39241        29.36122        -2.01718
O         48.11500        41.42482         1.90693
H         47.99325        42.26757         2.40410
O         43.58917        35.16381         1.59618
H         44.32831        34.78053         2.12319
O         47.98395        31.81406        -1.50588
H         47.99524        30.92547        -1.94664
O         33.65435        34.32937        -0.83195
H         34.37863        34.06694        -1.45635
O         47.98858        28.59490         1.65346
H         47.36925        27.90601         1.97452
O         37.82402        41.70319         2.13003
H         36.93709        41.48104         2.49759
O         36.01962        29.16680         1.86707
H         36.28481        28.25150         2.12971
O         40.30826        41.70002         1.96427
H         40.13837        42.62649         2.27555
O         48.75428        34.03104         2.37237
H         49.62255        34.29586         2.76616
O         39.43551        30.91249         1.20481
H         39.45718        31.84424         1.51387
O         40.13046        44.21551        -1.76935
H         40.63394        44.90172        -2.27069
O         30.92940        38.33497         1.96004
H         30.79591        37.44433         2.37316
O         45.03653        32.92855         1.74912
H         45.61261        32.21416         2.12324
O         47.64281        36.28898         1.70042
H         47.85280        35.47177         2.22828
O         47.90923        37.29802        -1.82407
H         47.32337        36.55837        -2.12877
O         38.32819        29.20694        -1.86795
H         39.08597        29.22505        -2.49870
O         30.93439        42.85701         1.18324
H         30.09178        43.35434         1.20489
O         42.76368        41.70355        -1.57410
H         42.97617        42.59136        -1.93058
O         50.55852        41.61828        -1.64302
H         50.37008        42.47232        -2.08421
O         44.12893        29.12170        -2.32035
H         43.52860        29.80676        -2.70665
O         42.79731        40.39768         1.82106
H         42.85624        39.49241         2.19042
O         39.82234        31.60071        -2.37121
H         40.63833        31.82591        -2.87791
O         42.47511        44.76704         2.03951
H         43.32599        45.01299         2.47883
O         42.58924        32.65260         1.29021
H         42.65446        33.50544         1.78755
O         39.19603        44.12719         1.77013
H         38.31705        44.04049         2.20902
O         37.33257        26.88713         1.85994
H         37.39442        25.90779         1.90156
O         50.56314        37.40502        -1.77184
H         49.68985        37.11750        -2.14414
O         43.94214        26.36035        -2.05237
H         44.15976        27.24163        -2.44396
O         51.95589        42.92924         1.64565
H         52.18350        42.07889         2.08125
O         44.27899        39.73363        -1.51685
H         43.45642        39.46154        -1.97510
O         38.69954        42.12969        -1.34083
H         39.30305        42.69337        -1.88342
O         43.12450        36.02767        -1.95080
H         42.24216        36.17732        -2.37889
O         36.18338        44.43144         1.74411
H         35.42783        43.90016         2.09784
O         47.28337        43.94931         2.01916
H         46.85654        44.67823         2.53160
O         41.25199        24.93114        -1.72100
H         41.44967        24.05113        -2.09924
O         35.55474        44.31989        -1.87902
H         34.74579        44.29040        -2.43459
O         49.33990        29.47113        -1.59691
H         50.18678        29.90082        -1.83677
O         37.27938        31.49092        -1.75365
H         38.05892        31.65520        -2.33672
O         36.29282        35.96575         2.19550
H         35.69530        36.38174         2.85648
O         33.62022        44.09692         1.19937
H         33.62360        45.05814         1.39734
O         30.88071        35.53139         2.51338
H         31.43570        34.97123         3.10324
O         40.32854        36.08604        -2.14026
H         39.67699        36.80071        -2.37714
O         44.36877        33.76677        -1.74674
H         43.80364        34.47034        -2.16119
O         32.66205        31.53488        -0.97341
H         31.91113        32.09758        -1.25595
O         45.30852        40.20358         1.96841
H         45.37268        39.24826         2.23827
O         34.10225        30.72513         2.23779
H         33.31090        30.21132         2.52410
O         47.19754        44.60707        -1.57479
H         47.90500        44.86232        -2.20214
O         40.46997        37.04445         1.39963
H         39.92572        37.70140         1.91435
O         39.05510        39.24468         1.83740
H         39.28807        40.11373         2.26726
O         48.02174        40.48764        -1.60486
H         47.20780        40.94158        -1.92794
