         640
 CSIRO Nanostructure Databank - Neutral Graphene Oxide Data Set
C         22.98227        27.41596         1.04916
C         23.00039        28.69293         1.50100
C         23.01218        31.71196         1.55144
C         23.00044        33.02240         1.20657
C         22.97399        35.94630         0.81749
C         22.95387        37.24862         0.47420
C         22.99950        40.19570         0.07128
C         22.99123        41.58747         0.02553
C         23.00014        44.51256        -0.14195
C         22.99406        45.90012        -0.16949
C         25.37658        24.67196         0.03915
C         24.18777        25.36429         0.34773
C         25.45149        27.37910         0.91871
C         24.21154        26.70243         0.78095
C         25.50861        28.75867         1.21896
C         24.26628        29.42329         1.65362
C         25.51047        31.65610         1.26709
C         24.27431        30.97772         1.67849
C         25.47204        33.06872         1.05468
C         24.22380        33.77017         1.03411
C         25.43972        35.88573         0.84457
C         24.21710        35.17882         0.88761
C         25.37096        37.39076         0.95984
C         24.23532        37.96775         0.11864
C         25.41916        40.19614         0.31422
C         24.19233        39.48361         0.23509
C         25.41631        41.60161         0.11558
C         24.19896        42.31592         0.00648
C         25.44310        44.49306        -0.10001
C         24.20316        43.77747        -0.09692
C         25.44329        45.92525        -0.12237
C         24.20590        46.63031        -0.15268
C         25.40600        48.74963        -0.16780
C         24.21868        48.05571        -0.17420
C         27.88278        23.11202        -0.17268
C         27.86174        24.54908        -0.07772
C         26.62360        25.24320         0.23018
C         27.88603        27.42521         0.39097
C         26.73312        26.59663         0.87871
C         27.91437        28.78786         0.63006
C         26.71868        29.49258         1.08059
C         27.93468        31.65759         0.84126
C         26.71538        30.92932         1.09712
C         27.93623        33.07548         0.85666
C         26.69464        33.79065         0.91385
C         27.92230        35.96647         0.91123
C         26.67626        35.21437         0.86253
C         27.90672        37.36162         0.92186
C         26.68341        38.09809         0.73782
C         27.91283        40.24551         0.75274
C         26.66609        39.47063         0.55941
C         27.91104        41.71204         0.46876
C         26.70860        42.30391        -0.22806
C         27.90827        44.50456        -0.08145
C         26.68374        43.80340        -0.07928
C         27.91386        45.93615        -0.13511
C         26.67383        46.64846        -0.13670
C         27.90972        48.79540        -0.14773
C         26.66233        48.07574        -0.15246
C         27.95322        50.21491        -0.08717
C         30.29749        23.10195        -0.55739
C         29.06535        22.42999        -0.36969
C         30.27206        24.58643        -0.78570
C         29.04139        25.26391        -0.24227
C         30.33624        27.43140        -0.13991
C         29.00362        26.76199        -0.36836
C         30.32694        28.82574         0.08181
C         29.14663        29.52367         0.41293
C         30.37540        31.67484         0.58027
C         29.16524        30.95537         0.61840
C         30.39977        33.09090         0.67550
C         29.16742        33.80550         0.78519
C         30.41249        35.91256         0.94095
C         29.17738        35.23036         0.89591
C         30.43763        37.36153         1.24466
C         29.12891        38.13384         1.37111
C         30.41160        40.25605         0.67061
C         29.19787        39.54578         0.82446
C         30.40343        41.69707         0.37347
C         29.20360        42.39699         0.24201
C         30.38593        44.51331        -0.14891
C         29.16980        43.79951        -0.02250
C         30.38028        45.94048        -0.26480
C         29.14498        46.64962        -0.20531
C         30.38398        48.79403        -0.21998
C         29.14363        48.08341        -0.20097
C         30.39399        50.21341        -0.11642
C         29.14998        50.89650        -0.05568
C         32.76248        20.31875        -0.92293
C         31.57081        20.99586        -0.82186
C         32.77959        23.12876        -0.59793
C         31.53341        22.41133        -0.66475
C         32.77625        24.56399        -0.44026
C         31.56337        25.28963        -0.44154
C         32.81643        27.40285        -0.16082
C         31.55034        26.69915        -0.26477
C         32.84246        28.80398        -0.10609
C         31.57413        29.61634        -0.21994
C         32.85462        31.71476         0.15653
C         31.66962        30.89754         0.60643
C         32.86592        33.09861         0.29129
C         31.64066        33.81250         0.59589
C         32.89191        35.95548         0.60903
C         31.64354        35.22162         0.73572
C         32.91399        37.37611         0.58361
C         31.70305        38.13000         0.97763
C         32.96746        40.30377         0.68784
C         31.64790        39.58137         0.73424
C         32.88035        41.71992         0.17282
C         31.64266        42.39759         0.14336
C         32.84763        44.48793        -0.38247
C         31.62591        43.80015        -0.12819
C         32.84808        45.93847        -0.47537
C         31.61353        46.65041        -0.37421
C         32.85823        48.77925        -0.38017
C         31.62179        48.07616        -0.33402
C         32.86974        50.20790        -0.23331
C         31.65080        50.92004        -0.07014
C         32.90274        53.00043         0.19096
C         31.70520        52.32554         0.15141
C         35.31145        18.88312        -1.05304
C         35.24413        20.24555        -0.82238
C         34.00842        20.99163        -0.80046
C         35.26190        23.12674        -0.49922
C         34.00463        22.40980        -0.61910
C         35.26527        24.54954        -0.35771
C         34.03102        25.25904        -0.29915
C         35.29179        27.38494        -0.13030
C         34.04688        26.67633        -0.17594
C         35.28880        28.80891        -0.18151
C         34.07193        29.49957        -0.15882
C         35.36493        31.74102        -0.32479
C         34.02535        30.97765        -0.30612
C         35.33427        33.16370         0.02094
C         34.11476        33.83392         0.20569
C         35.35054        35.96827         0.41489
C         34.10904        35.25446         0.40262
C         35.34093        37.40548         0.33494
C         34.09907        38.07768         0.30815
C         35.33745        40.26390        -0.13304
C         34.01371        39.52598        -0.11825
C         35.33014        41.64439        -0.28504
C         34.06559        42.37445        -0.22803
C         35.25624        44.44481        -1.10075
C         34.04408        43.75550        -0.51566
C         35.36771        45.88052        -0.50881
C         34.06185        46.64489        -0.56133
C         35.34297        48.77924        -0.54545
C         34.08523        48.05876        -0.50788
C         35.34179        50.20712        -0.43689
C         34.11321        50.91377        -0.24131
C         35.37455        53.03295        -0.12182
C         34.13498        52.32228        -0.02692
C         35.49240        54.42643         0.28420
C         37.76366        18.79316        -0.85392
C         36.53779        18.16589        -1.01205
C         37.78791        20.24237        -0.73182
C         36.49621        20.93372        -0.34779
C         37.70552        23.13762        -0.48340
C         36.48336        22.42910        -0.53587
C         37.73361        24.52369        -0.30387
C         36.51011        25.25119        -0.20942
C         37.76380        27.39741         0.16431
C         36.52569        26.66781        -0.06969
C         37.78532        28.76640         0.04101
C         36.58925        29.51386        -0.50583
C         37.81275        31.68826        -0.02341
C         36.59665        30.98508        -0.16036
C         37.81322        33.13587         0.07768
C         36.58554        33.84559         0.16265
C         37.83073        35.93737         0.65435
C         36.56720        35.24771         0.39912
C         37.82321        37.48727         0.55671
C         36.55986        38.15209         0.23165
C         37.81800        40.25226        -0.14650
C         36.56868        39.53583        -0.04928
C         37.81980        41.64247        -0.39922
C         36.56970        42.37345        -0.51328
C         37.82821        44.43245        -1.28716
C         36.55931        43.70987        -0.87914
C         37.83096        45.92369        -0.96246
C         36.52269        46.65167        -1.14482
C         37.79828        48.78947        -0.74336
C         36.56374        48.09648        -0.71257
C         37.80503        50.21928        -0.70866
C         36.55663        50.93009        -0.58989
C         37.73658        53.12386        -0.91204
C         36.52715        52.35548        -0.54901
C         37.69947        54.65287        -0.84794
C         36.60765        55.15027         0.06686
C         40.29611        15.94926        -1.06608
C         39.09001        16.64158        -1.13542
C         40.22461        18.76958        -0.84253
C         39.03595        18.06804        -0.95665
C         40.25161        20.22217        -0.46413
C         38.96364        20.94379        -0.77432
C         40.26213        23.18179        -0.83999
C         38.96440        22.42463        -0.81256
C         40.31103        24.55816        -0.29015
C         39.01271        25.17895         0.08227
C         40.36859        27.31282         0.75421
C         38.99950        26.62369         0.50692
C         40.31202        28.82902         0.55142
C         39.01202        29.54178         0.30557
C         40.32185        31.68556        -0.27436
C         39.03245        30.97570        -0.01411
C         40.28233        33.11413         0.18230
C         39.07952        33.81818         0.22013
C         40.30819        35.97808         0.37460
C         39.09587        35.24448         0.44399
C         40.29952        37.41946         0.24471
C         39.08969        38.15028         0.23651
C         40.29767        40.24294        -0.17111
C         39.06248        39.54101        -0.04202
C         40.29399        41.65125        -0.37019
C         39.06005        42.35094        -0.51077
C         40.29386        44.44218        -0.85215
C         39.08148        43.73891        -0.81239
C         40.27139        45.86686        -1.34926
C         39.00831        46.61347        -0.96559
C         40.25040        48.77772        -0.97295
C         39.04188        48.07627        -0.89666
C         40.27105        50.20690        -0.85053
C         39.03990        50.90573        -0.74821
C         40.27765        53.09602        -0.55360
C         39.04863        52.37440        -0.88410
C         40.24587        54.52047        -0.37057
C         39.04957        55.27995        -0.53237
C         40.30076        57.34164        -0.18456
C         39.10839        56.67796        -0.46199
C         42.77354        15.93287        -0.82085
C         41.52396        16.61477        -0.92219
C         42.68832        18.78163        -0.32164
C         41.55290        18.10949        -1.07898
C         42.78387        20.24351        -0.49339
C         41.53494        20.91564        -0.88842
C         42.81310        23.10827        -0.65124
C         41.55562        22.41778        -0.95365
C         42.77346        24.60704        -0.81856
C         41.50612        25.25489        -0.25777
C         42.76298        27.36465         0.00820
C         41.55664        26.65363         0.07478
C         42.79429        28.80252         0.15680
C         41.58059        29.54421         0.25672
C         42.79569        31.65933         0.06060
C         41.57236        30.93526         0.12120
C         42.79073        33.07605         0.14087
C         41.55267        33.79785         0.60664
C         42.75524        35.96170         0.06088
C         41.54469        35.27716         0.29197
C         42.76298        37.39903        -0.05943
C         41.53486        38.11281         0.02899
C         42.76188        40.24519        -0.24916
C         41.52889        39.53033        -0.12046
C         42.75288        41.65613        -0.33136
C         41.53248        42.36190        -0.42551
C         42.77292        44.50345        -0.69173
C         41.52245        43.78208        -0.61846
C         42.73613        45.94075        -0.90510
C         41.54415        46.61314        -1.07292
C         42.78004        48.80597        -0.98863
C         41.52488        48.07886        -1.41872
C         42.75670        50.22951        -0.80775
C         41.51396        50.93242        -0.80592
C         42.69704        53.03347        -0.21795
C         41.50626        52.36333        -0.51702
C         42.64184        54.39438         0.41034
C         41.44690        55.19964        -0.02945
C         42.72599        57.27323         0.36448
C         41.47757        56.60354         0.06773
C         43.94839        16.58433        -0.54667
C         45.22455        18.78735        -0.07718
C         43.96747        18.00531        -0.14330
C         45.21539        20.21239        -0.11655
C         43.97053        20.93840        -0.34779
C         45.24569        23.10435        -0.27335
C         43.98648        22.39794        -0.44942
C         45.25397        24.53456        -0.26026
C         44.04034        25.27745        -0.36373
C         45.26612        27.37481        -0.07056
C         44.02589        26.66227        -0.17034
C         45.27147        28.79970        -0.03761
C         44.02640        29.50534         0.03150
C         45.25877        31.61949        -0.17828
C         44.03589        30.92981        -0.01020
C         45.21933        33.07510        -0.38534
C         43.97448        33.81053        -0.05494
C         45.23796        35.92198        -0.36525
C         43.97118        35.21627        -0.06791
C         45.24473        37.40191        -0.49733
C         43.97121        38.12654        -0.29588
C         45.24103        40.22049        -0.82478
C         43.98767        39.51648        -0.34819
C         45.28303        41.68494        -0.49754
C         44.03116        42.41163        -0.10193
C         45.24536        44.52342        -0.75060
C         43.99218        43.84067        -0.56716
C         45.19512        45.95551        -0.93855
C         43.99840        46.65272        -0.93007
C         45.21346        48.80186        -0.61789
C         43.97985        48.10621        -0.88906
C         45.18971        50.21912        -0.41496
C         43.98281        50.91701        -0.54574
C         45.18370        53.00823         0.21347
C         44.02290        52.42125        -0.55879
C         45.13964        54.43018         0.49843
C         43.95243        55.14770         0.38973
C         43.89547        56.58042         0.49419
C         47.64589        18.79830         0.08266
C         46.44913        18.10559         0.01685
C         47.66855        20.21079         0.07546
C         46.43900        20.92748        -0.01626
C         47.66668        23.09626         0.12620
C         46.45110        22.38894        -0.05552
C         47.70587        24.50861         0.06736
C         46.48697        25.23457        -0.08668
C         47.73703        27.37237        -0.00332
C         46.49721        26.66276        -0.06352
C         47.74672        28.79720        -0.05138
C         46.50337        29.51139        -0.07898
C         47.74994        31.66070        -0.17984
C         46.49734        30.93862        -0.15999
C         47.78472        33.07141        -0.20455
C         46.52798        33.81484        -0.38185
C         47.77462        35.98626        -0.15391
C         46.49509        35.23999         0.11579
C         47.76172        37.39668        -0.22758
C         46.52757        38.13509        -0.34283
C         47.75656        40.25536        -0.42166
C         46.52607        39.51085        -0.45843
C         47.74886        41.66404        -0.56096
C         46.47427        42.38007        -0.58532
C         47.75621        44.44913        -1.19159
C         46.46296        43.82393        -0.69538
C         47.75894        45.97364        -1.10517
C         46.45698        46.71044        -1.05141
C         47.67342        48.80050        -0.40881
C         46.44043        48.12281        -0.63767
C         47.61197        50.17761         0.01216
C         46.41037        50.88348        -0.00359
C         47.47226        52.84625         1.24769
C         46.32357        52.26948         0.43571
C         47.46191        54.34918         1.26059
C         46.38331        55.06790         0.90137
C         50.15195        20.26733         0.04324
C         48.92632        20.91482         0.16050
C         50.19614        23.09502         0.28129
C         48.90684        22.36336         0.56446
C         50.19864        24.50903         0.21575
C         48.95665        25.22628         0.15224
C         50.21020        27.35768         0.08974
C         48.96823        26.64425         0.08071
C         50.21773        28.78462        -0.00379
C         48.98349        29.50905        -0.07148
C         50.19940        31.67580        -0.19726
C         48.98498        30.94498        -0.12959
C         50.23068        33.09378        -0.17218
C         48.99505        33.80716        -0.14208
C         50.22679        35.97331        -0.11294
C         48.98836        35.25926        -0.14321
C         50.22553        37.40098        -0.10405
C         48.99584        38.11766        -0.20505
C         50.21907        40.26221        -0.17572
C         48.99001        39.54366        -0.26435
C         50.21082        41.68542        -0.25140
C         48.98238        42.38825        -0.47827
C         50.19601        44.53752        -0.48456
C         48.99674        43.80214        -0.61880
C         50.18669        45.98074        -0.57687
C         48.98792        46.70122        -0.70729
C         50.18809        48.91535        -0.58365
C         48.91368        48.11025        -0.50865
C         50.13207        50.25404         0.08908
C         48.84415        50.76606         0.65661
C         49.98337        52.97635         0.82503
C         48.80180        52.26112         0.81662
C         51.36753        20.95687         0.15231
C         52.67692        23.07914         0.29292
C         51.41118        22.36610         0.25702
C         52.68147        24.50567         0.24595
C         51.44293        25.22238         0.18265
C         52.68800        27.36241         0.14399
C         51.44478        26.64657         0.13772
C         52.69101        28.79341         0.04032
C         51.45654        29.47738        -0.08059
C         52.76372        31.69069        -0.28141
C         51.44505        30.91766        -0.36128
C         52.71919        33.14487        -0.05621
C         51.47898        33.82918        -0.11595
C         52.68836        35.98056         0.10822
C         51.46409        35.25671        -0.04542
C         52.68536        37.41029         0.15769
C         51.45596        38.12452         0.01125
C         52.67631        40.27336         0.12554
C         51.44980        39.54917        -0.00763
C         52.66305        41.70069         0.08436
C         51.43430        42.41589        -0.12486
C         52.64162        44.57665         0.03411
C         51.42329        43.83613        -0.20689
C         52.63783        45.97096        -0.02823
C         51.50017        46.71551        -0.66524
C         52.61399        48.87685         0.01626
C         51.43447        48.15263        -0.22578
C         52.59713        50.31357         0.10377
C         51.31069        50.98914         0.24050
C         51.23099        52.35768         0.61898
C         55.09971        23.10179         0.55023
C         53.89930        22.40168         0.43172
C         55.13769        24.49686         0.47014
C         53.92286        25.21094         0.29286
C         55.14219        27.37549         0.22961
C         53.91558        26.65445         0.21145
C         55.14423        28.76857         0.29601
C         53.93414        29.51390         0.14558
C         55.14819        31.68538         0.28551
C         53.96917        30.94253         0.09416
C         55.16426        33.10151         0.27843
C         53.93253        33.83840         0.17363
C         55.11632        35.99273         0.52014
C         53.91851        35.27249         0.25592
C         55.13282        37.40718         0.52619
C         53.90839        38.12959         0.33197
C         55.13953        40.27608         0.42858
C         53.90397        39.55850         0.30670
C         55.12817        41.72148         0.34243
C         53.88992        42.42396         0.21303
C         55.11517        44.54854         0.30911
C         53.88448        43.85130         0.23454
C         55.12542        45.99174         0.56444
C         53.79838        46.73984         0.40849
C         55.07570        48.89071         0.32235
C         53.85918        48.19279         0.20649
C         55.03202        50.30829         0.26715
C         53.82231        50.99250         0.19606
C         57.70571        24.52033         0.42748
C         56.42263        25.26305         0.74722
C         57.69385        27.37600         0.27580
C         56.42071        26.60243         0.00629
C         57.70288        28.76732         0.39340
C         56.41354        29.48099         0.55169
C         57.68762        31.67846         0.16859
C         56.41405        30.97131         0.56225
C         57.63583        33.13932         0.55991
C         56.40674        33.79541         0.53502
C         57.67372        36.01858         0.90285
C         56.33330        35.23546         0.84431
C         57.62935        37.46189         0.65767
C         56.37929        38.13777         0.62082
C         57.63265        40.28020         0.67137
C         56.35051        39.56234         0.57634
C         57.63094        41.77361         0.49805
C         56.33757        42.45355         0.30950
C         57.61303        44.60274         0.24481
C         56.35034        43.86311         0.24831
C         57.59726        46.03582         0.30721
C         56.37261        46.75816         0.41208
C         57.59397        48.86038         0.35073
C         56.34959        48.16540         0.39284
C         58.86036        25.19441         0.24566
C         60.12334        27.35019         0.41813
C         58.90767        26.64967         0.29861
C         60.13533        28.73564         0.51699
C         58.93208        29.48391         0.51634
C         60.08235        31.67868         0.83698
C         58.93453        30.93222         0.58893
C         60.07822        33.08292         0.82273
C         58.88711        33.83867         0.70426
C         60.08197        36.00171         0.37217
C         58.91203        35.26862         0.67354
C         60.07300        37.38018         0.29525
C         58.87435        38.14877         0.45697
C         60.10132        40.33991         0.39759
C         58.89490        39.56042         0.44449
C         60.10576        41.69134         0.22829
C         58.84499        42.43441        -0.12441
C         60.04924        44.67244         0.08120
C         58.84507        43.93268         0.12783
C         60.04733        46.05296         0.15650
C         58.82409        46.76130         0.25739
C         58.79055        48.18334         0.30217
O         54.32402        46.35369         1.73163
O         45.27852        36.52239        -1.69650
O         45.85354        33.54401        -1.64064
O         56.40908        30.26088         1.82894
O         52.19727        31.28098        -1.57498
O         39.47977        23.03443        -2.07804
O         57.77116        41.22651         1.83295
O         39.58084        29.39499         1.70301
O         40.19176        45.79904        -2.80064
O         34.61715        31.42089        -1.57235
O         38.36806        52.73778        -2.17779
O         41.58219        21.57887        -2.17476
O         38.83855        25.57610         1.50685
O         24.39355        30.17288         2.90169
O         31.32051        37.70846         2.37481
O         43.02383        18.26614         0.98522
O         37.81324        36.79724         1.84424
O         27.70937        41.28912         1.83919
O         47.18334        46.54144        -2.34345
O         56.94283        35.60772         2.11189
O         40.33779        20.27316         1.00803
H         39.55731        19.80360         1.37424
O         40.44226        31.73053        -1.76945
H         39.64864        32.19809        -2.10917
O         28.87867        38.31768         2.80606
H         29.76973        38.38502         3.22710
O         33.47180        40.36162         2.05678
H         32.73854        40.64464         2.64213
O         40.68143        27.13291         2.15946
H         40.07968        27.72784         2.66206
O         51.79511        46.76892        -2.14535
H         51.58949        45.88200        -2.51458
O         31.45753        30.04057        -1.60880
H         31.27892        29.24685        -2.15549
O         47.27205        52.41366         2.63550
H         47.53835        51.46126         2.67774
O         41.89449        18.36473        -2.49565
H         41.13925        18.06258        -3.04360
O         37.89282        44.38811        -2.75666
H         38.75664        44.87217        -2.99267
O         41.48839        48.11626        -2.88296
H         40.97739        47.28845        -3.15341
O         44.11990        42.50919         1.38678
H         43.33789        43.02028         1.68850
O         45.16878        40.15741        -2.29623
H         45.23024        39.21224        -2.55598
O         35.71102        45.73577         0.89458
H         34.95079        45.32134         1.35445
O         56.42604        25.56457         2.16803
H         56.42299        24.71849         2.66138
O         42.39269        54.13611         1.85839
H         42.37249        55.01141         2.30203
O         58.64612        42.27975        -1.57278
H         59.39117        42.72691        -2.02656
O         44.26330        52.81005        -1.96993
H         43.61274        52.32590        -2.52312
O         36.69702        29.48225        -1.97762
H         35.94745        30.03019        -2.31486
O         41.60771        33.71554         2.08989
H         40.80929        34.17190         2.43332
O         48.80302        50.20876         2.06364
H         49.63341        50.49723         2.50296
O         24.53996        37.67907        -1.27457
H         23.81551        38.04034        -1.82612
O         37.32797        55.11774        -2.17824
H         37.76556        54.50400        -2.81295
O         46.35815        35.17598         1.57128
H         47.20205        34.84511         1.94500
O         33.51944        39.50513        -1.49001
H         34.22426        39.14380        -2.06689
O         36.47816        20.75888         1.12756
H         35.62885        21.12855         1.45234
O         47.81471        44.09467        -2.60944
H         47.35380        44.82455        -3.09074
O         30.16318        24.73773        -2.28845
H         29.48946        24.08684        -2.58439
O         26.93591        42.03598        -1.65584
H         26.21020        42.46136        -2.15958
O         35.02435        44.47461        -2.52587
H         35.87779        44.72383        -2.95932
O         36.28867        46.72765        -2.58341
H         37.12448        47.02052        -3.00574
O         42.71788        24.83618        -2.27125
H         42.05429        24.21720        -2.64781
O         50.35059        49.19196        -2.03459
H         50.76062        48.38231        -2.43067
O         27.04832        26.29935         2.30804
H         27.01897        27.15357         2.79163
O         25.02443        37.67383         2.34952
H         25.82793        37.53850         2.89551
O         28.70981        27.01048        -1.80213
H         29.28746        26.37875        -2.30441
O         48.81506        22.33543         2.05325
H         49.60001        21.84306         2.37679
O         31.90074        30.49098         1.98931
H         31.85831        31.29183         2.55289
O         56.42900        26.26582        -1.41331
H         56.42631        27.10082        -1.92614
O         57.68605        31.64470        -1.30470
H         58.49423        32.10858        -1.61035
H         22.02933        26.87826         0.93729
H         22.06404        29.18789         1.79209
H         22.06899        31.19562         1.77452
H         22.03518        33.53923         1.12613
H         22.02208        35.43901         1.02825
H         21.98703        37.76704         0.39502
H         22.03979        39.66539         0.00057
H         22.02478        42.10174        -0.05198
H         22.03471        43.98971        -0.14522
H         22.03889        46.44365        -0.19864
H         25.29374        23.66384        -0.39200
H         23.21910        24.86576         0.20080
H         25.37398        49.84700        -0.18565
H         23.26197        48.59717        -0.19652
H         26.96034        22.54516         0.00937
H         27.02087        50.79307        -0.04653
H         29.04696        21.33262        -0.31569
H         29.12590        51.99242         0.00390
H         32.73996        19.23095        -1.06883
H         30.63418        20.42917        -0.90347
H         32.89881        54.08647         0.35386
H         30.77783        52.89358         0.30158
H         34.40474        18.31124        -1.29465
H         34.67450        54.86520         0.87410
H         36.49150        17.07965        -1.16930
H         36.67436        56.18023         0.44689
H         40.28464        14.84887        -1.08576
H         38.15913        16.06953        -1.24237
H         40.32889        58.43976        -0.14560
H         38.19557        57.26198        -0.64387
H         42.78832        14.84442        -0.98819
H         42.72618        58.37100         0.42491
H         44.88848        16.01499        -0.55831
H         44.82647        57.14730         0.63252
H         48.57913        18.22902         0.17938
H         46.46719        17.00872         0.06223
H         48.34138        54.87344         1.66060
H         46.42212        56.16311         0.98212
H         50.19377        19.18990        -0.16744
H         49.97747        54.05774         1.01969
H         52.29766        20.38059         0.06824
H         52.14215        52.96123         0.71726
H         56.02322        22.52796         0.70870
H         53.92647        21.30579         0.49140
H         55.95758        50.89521         0.32719
H         53.84163        52.09079         0.21393
H         57.71986        23.42044         0.42279
H         57.61025        49.95799         0.35725
H         59.80473        24.65035         0.08959
H         61.07071        26.79223         0.43607
H         61.10177        29.25252         0.59284
H         61.03138        31.17177         1.06251
H         61.02927        33.60449         0.99507
H         61.02598        35.46772         0.19517
H         61.01486        37.90052         0.07806
H         61.06560        39.82643         0.52662
H         61.06964        42.21983         0.22036
H         61.00971        44.14876        -0.02115
H         60.99354        46.61125         0.12011
H         59.73869        48.73952         0.27737
