         260
 CSIRO Nanostructure Databank - Neutral Graphene Oxide Data Set
C         30.23374        31.69532         0.38436
C         30.35759        32.89223         0.63016
C         30.95198        35.83123         1.77443
C         31.03510        37.06465         2.03552
C         30.71139        40.26228         1.60451
C         30.51171        41.46731         1.34710
C         32.51016        28.94004         0.69115
C         31.44992        29.45189         0.34061
C         32.62350        31.55138        -0.35698
C         30.98753        30.66947        -0.34099
C         32.62190        33.06598        -0.40062
C         31.37995        33.84494         0.18587
C         32.75972        35.96925         0.24254
C         31.62677        35.14948         0.76082
C         33.13549        37.31939         0.89093
C         31.99925        38.02384         1.65072
C         33.07641        40.23608         1.21350
C         31.83217        39.39205         1.51882
C         32.86423        41.70062         0.83346
C         31.48642        42.41115         0.77213
C         32.76168        44.33740         0.48166
C         31.63901        43.86237         0.93371
C         35.31289        27.31563         0.87463
C         35.15076        28.78067         0.95163
C         33.85130        29.51623         0.82417
C         35.12463        31.71674         0.34240
C         33.87197        30.88839         0.14830
C         35.11798        33.12198        -0.13709
C         33.93033        33.77185        -0.38258
C         35.21028        36.00889        -0.49071
C         33.90181        35.25800        -0.48458
C         35.17000        37.37641         0.16899
C         33.90659        38.17831        -0.07748
C         35.22324        40.39338        -0.20807
C         33.93505        39.63804         0.10069
C         35.36044        41.73690         0.55140
C         34.13458        42.51133         1.05909
C         35.36293        44.72630         0.64842
C         34.08222        43.95327         0.53219
C         35.35713        46.08783         0.02116
C         37.78260        27.33204         0.71450
C         36.48673        26.85096         0.86451
C         37.70971        28.74515         0.26560
C         36.38890        29.49124         0.40978
C         37.73011        31.68375         0.16281
C         36.44289        30.99165         0.49202
C         37.70969        33.03037        -0.08919
C         36.44568        33.71998        -0.57659
C         37.69041        35.91318         0.19786
C         36.48852        35.25078        -0.48023
C         37.69966        37.42493         0.03460
C         36.47756        38.13478         0.11758
C         37.69680        40.22668        -0.25721
C         36.48204        39.54177        -0.04193
C         37.64468        41.69912        -0.55085
C         36.56254        42.51126         0.09402
C         37.65430        44.63237        -0.66815
C         36.55305        43.97737        -0.04289
C         37.57612        46.07796        -0.99108
C         36.36545        46.62466        -0.45045
C         39.99009        24.63504         0.26116
C         39.11927        25.24147         0.91705
C         40.22613        27.31569         0.35988
C         39.05783        26.72636         1.18333
C         40.15755        28.71907        -0.03876
C         38.95917        29.53402         0.23306
C         40.25030        31.61940        -0.04237
C         38.98566        30.91985         0.13114
C         40.27723        33.04000        -0.17079
C         38.98252        33.75264        -0.35221
C         40.22786        36.01001        -0.27151
C         38.95815        35.25783        -0.31528
C         40.20848        37.38675        -0.29969
C         38.92546        38.10944        -0.17612
C         40.19195        40.23637        -0.67573
C         38.91139        39.51640        -0.33057
C         40.14227        41.70011        -0.28648
C         38.92498        42.46146        -0.70102
C         40.19715        44.59386        -0.56172
C         38.92689        43.93894        -0.67193
C         40.46182        45.79355        -1.22374
C         38.52545        46.77938        -1.69562
C         40.12197        48.54699        -1.64335
C         38.93286        48.14963        -1.60155
C         42.45702        24.53124        -0.62381
C         41.24345        25.10829        -0.19632
C         42.62862        27.24937        -0.23830
C         41.34206        26.56602        -0.07189
C         42.70000        28.63086        -0.22272
C         41.47924        29.44483        -0.33939
C         42.71138        31.61044        -0.19608
C         41.49609        30.91967        -0.14960
C         42.75900        33.05552        -0.24500
C         41.48452        33.74652        -0.23461
C         42.73937        35.94834        -0.68813
C         41.45373        35.21003        -0.52219
C         42.77979        37.47535        -0.76615
C         41.45323        38.15419        -0.38892
C         42.70732        40.32701        -0.23871
C         41.43729        39.51994        -0.23607
C         42.65988        41.73829         0.27816
C         41.34448        42.45514         0.16549
C         42.58057        44.76596         0.47056
C         41.32906        43.96324         0.19364
C         42.48818        46.23623         0.07035
C         41.51017        46.71587        -0.81930
C         42.61151        48.82561        -1.11588
C         41.41752        48.14792        -1.23835
C         43.57770        25.07104        -0.74100
C         45.25356        27.08844        -0.29105
C         43.90396        26.42328        -0.27407
C         45.27144        28.61091        -0.21675
C         43.97893        29.37488        -0.15749
C         45.23558        31.56749        -0.01094
C         43.97093        30.85096        -0.55795
C         45.32810        33.03212        -0.50774
C         43.98742        33.74256        -0.41446
C         45.32145        35.97515        -0.30606
C         44.04306        35.20826        -0.58669
C         45.23321        37.38398         0.22929
C         43.88477        38.13241         0.09599
C         45.36019        40.37334        -0.16458
C         44.02606        39.61676        -0.29905
C         45.26804        41.72431         0.65002
C         43.91681        42.49980         0.57988
C         45.12099        44.65095         0.64956
C         43.90813        44.01628         0.56096
C         45.48311        47.01961         0.24573
C         44.30325        47.74673         0.05277
C         43.86726        48.66003        -0.91892
C         47.51505        27.27636        -0.71341
C         46.46603        26.57279        -0.97738
C         47.82104        28.61536        -0.60089
C         46.51964        29.36427        -0.64855
C         47.81985        31.57289        -0.31489
C         46.50313        30.84384        -0.47447
C         47.77664        32.96817         0.27442
C         46.44573        33.76308         0.31332
C         47.88280        35.93922         0.27219
C         46.62363        35.22065        -0.11119
C         47.83129        37.39147         0.68490
C         46.50674        38.12877         0.56676
C         47.72049        40.31161         0.57515
C         46.55209        39.61078         0.41456
C         47.83595        41.80508         0.20776
C         46.46761        42.51645         0.17547
C         47.69810        44.75648         0.34577
C         46.40712        43.99684         0.26816
C         47.49029        46.04067         0.01749
C         46.74870        47.05169        -0.38444
C         50.34569        28.73270        -0.13510
C         48.95548        29.24955         0.14872
C         50.37585        31.51598         0.19035
C         49.09229        30.78455        -0.13565
C         50.36916        32.91418         0.19196
C         49.10435        33.66027         0.46664
C         50.41051        35.94878         0.68002
C         49.12287        35.16639         0.68125
C         50.42187        37.49185         0.62900
C         49.08858        38.16218         0.98351
C         49.85634        40.43027         1.72468
C         48.94655        39.66224         1.04398
C         49.79482        41.89022         1.75304
C         48.82551        42.58388         1.08285
C         50.24384        44.39891         0.41361
C         48.88299        44.12419         1.02088
C         51.40678        29.35194         0.07745
C         52.74467        31.59854         0.25433
C         51.61864        30.74888         0.17836
C         52.80720        32.84056         0.14177
C         51.63111        33.70461         0.03283
C         52.84423        35.99303         0.55937
C         51.65935        35.18719         0.24157
C         52.85573        37.19460         0.82379
C         51.77877        38.19493         0.75449
C         52.72876        40.58119         1.17006
C         51.91981        39.52266         1.37140
C         52.76070        41.87011         1.19845
C         51.86634        42.86860         1.36659
C         51.39470        44.02525         0.67939
O         43.38538        40.10711        -1.52425
O         32.85301        35.93095        -1.21456
O         50.92875        39.80359         2.38355
O         46.22484        43.27780        -1.03129
O         46.34579        30.24644        -1.80652
O         40.62622        28.97655        -1.41653
O         34.51732        37.06494         1.54074
O         50.86491        42.55872         2.40444
O         44.74479        26.47667         0.90922
O         45.65605        37.53344         1.62010
O         51.59221        34.65747        -1.08714
O         38.85964        34.55386        -1.58783
O         36.44767        41.90660         1.47924
O         39.59778        46.05266        -2.29620
O         40.38530        41.89627         1.13725
O         43.97071        30.97222        -2.05867
O         49.80772        35.49044         1.92080
O         44.74953        29.08413         1.06795
O         38.14690        42.01346        -1.86956
O         36.45772        33.47280        -2.05842
O         45.19928        45.93975         1.13895
O         44.89956        35.76710        -1.67558
O         35.76441        31.56535         1.65180
O         31.62259        33.69175        -1.23282
O         33.34909        39.01744        -1.09988
O         33.48239        30.86344        -1.27914
O         40.31469        40.28927        -2.19495
O         42.01670        35.45806        -1.87723
O         34.52175        29.40093         2.08782
O         41.58750        44.50691         1.52983
O         47.59403        35.60359        -1.12432
O         48.68028        31.28389        -1.44478
O         51.07700        38.09569        -0.52230
O         48.39695        32.99060         1.59263
O         36.80289        29.00253        -0.88637
O         43.19711        47.15410         0.83086
O         48.34572        37.52948         2.05501
O         43.10382        41.91929         1.66674
O         32.15025        41.86262        -0.40681
O         36.02565        35.92200        -1.68563
O         46.00682        33.90635         1.67178
H         46.70264        33.54251         2.26728
O         43.89897        29.65670        -2.65562
H         44.82201        29.54089        -3.00318
O         35.17493        40.79401        -1.59287
H         34.61461        40.14369        -2.07825
O         35.68532        44.84989         2.04944
H         36.47791        45.41958         2.14364
O         48.92823        44.62949         2.35213
H         49.69227        44.20951         2.81042
O         45.79422        40.69957        -1.50539
H         44.99756        40.71733        -2.08866
O         43.29533        38.14507         1.41670
H         44.03115        38.13537         2.07750
O         34.23857        42.64864         2.49511
H         35.03028        43.21357         2.68576
O         33.90234        40.09313         2.38197
H         33.98579        40.96095         2.85434
O         45.52328        41.43310         2.03258
H         44.65133        41.34710         2.48782
O         43.00932        37.78769        -2.15651
H         42.81089        36.97585        -2.67957
O         40.40383        38.95246        -2.69625
H         41.38627        38.78625        -2.75934
O         30.57082        30.51290        -1.63033
H         31.16069        29.89294        -2.10478
O         45.16785        31.60557         1.41454
H         45.07723        30.68049         1.74932
O         36.36312        32.03481        -2.24453
H         36.88438        31.90550        -3.07432
O         48.71985        29.14430         1.55465
H         48.51097        28.21152         1.77402
O         37.61783        35.60525         1.61353
H         36.92817        36.16678         2.02942
O         48.38893        41.84591        -1.12035
H         47.64884        41.66350        -1.74561
O         39.26039        26.98917         2.57639
H         40.00203        26.43914         2.90466
O         45.79077        33.05237        -1.86153
H         45.18730        32.50604        -2.41495
