         290
 CSIRO Nanostructure Databank - Neutral Graphene Oxide Data Set
C         -9.62816         0.03075         3.03323
C         -9.25274         1.13227         2.06777
C         -8.13408         0.62311         1.12604
C         -7.72344         1.76388         0.23796
C         -6.12344         0.83666        -1.03663
C         -4.96278         1.54552        -0.82718
C         -3.71561         0.81922        -1.02588
C         -2.52068         1.48604        -0.99664
C         -1.20849         0.85125        -1.38484
C         -0.06953         1.54257        -0.59771
C          1.23092         0.71293        -0.60450
C          2.52361         1.45681        -0.86831
C          3.84102         0.73932        -1.01457
C          5.13825         1.50611        -0.84852
C          6.37134         0.76685        -0.44145
C          7.43367         1.47262         0.35455
C          8.72822         0.76560         0.62083
C         10.02331         1.46979         0.24010
C         11.18337         0.59508         0.70343
C         -8.85617         2.46884         2.68525
C         -8.01299         3.33228         2.05963
C         -7.33616         2.92787         0.82328
C         -6.15859         3.66763         0.27807
C         -4.91978         2.86461        -0.09112
C         -3.57326         3.53591         0.02036
C         -2.59970         2.99769        -1.03875
C         -1.24081         3.71280        -1.12063
C          0.04178         2.88410        -1.34300
C          1.32354         3.63457        -0.98403
C          2.47424         2.93724        -0.71977
C          3.75446         3.69694        -0.54887
C          5.07776         3.00415        -0.64830
C          6.38519         3.70390        -0.34661
C          7.45957         2.96537         0.38180
C          8.73407         3.69455         0.63333
C         10.02846         2.89813         0.85882
C         -7.91330         4.78350         2.49130
C         -7.02776         5.67021         1.62603
C         -5.98245         5.06229         0.76185
C         -4.68388         5.78147         0.63280
C         -3.41897         4.93836         0.68936
C         -2.12616         5.75048         0.35662
C         -1.13893         5.10658        -0.61609
C          0.18314         5.79638        -0.62871
C          1.32717         5.09780        -0.85261
C          2.64885         5.84758        -0.89826
C          3.55292         5.04383         0.13595
C          4.80477         5.77396         0.65578
C          6.11322         5.06230         1.07081
C          7.41139         5.81423         0.77368
C          8.66890         5.04707         0.76722
C         -7.05153         7.01588         1.73683
C         -5.81183         7.84861         1.48240
C         -4.69503         7.13609         0.72193
C         -3.62309         7.96924         0.03202
C         -2.33473         7.17589        -0.11155
C         -1.25351         7.76395        -0.68710
C          0.11100         7.25375        -0.62843
C          1.23022         8.06687        -0.56379
C          2.54924         7.36437        -0.60866
C          3.73227         8.04123        -0.00018
C          4.86149         7.26101         0.59739
C          6.17596         8.02522         0.84552
C          7.39720         7.16174         0.59183
C         -5.96293         9.26740         0.98914
C         -4.86679         9.98841         0.70276
C         -3.48264         9.36052         0.74386
C         -2.36065        10.32293         0.36309
C         -1.25195         9.97067        -0.38723
C          0.08647        10.37140        -0.15710
C          1.24879         9.52808        -0.29049
C          2.43412        10.15892         0.09093
C          3.69204         9.46851         0.52425
C          5.00510        10.06639         0.02258
C          6.14256         9.35836         0.12145
C         -9.42552        -1.26622         2.76229
C         -8.63663        -1.79768         1.58364
C         -8.47557        -0.71926         0.43995
C         -7.45808        -1.27728        -0.61297
C         -6.17861        -0.61180        -1.05864
C         -5.06385        -1.31117        -1.44025
C         -3.78979        -0.56039        -1.60407
C         -2.51828        -1.30471        -1.90950
C         -1.25147        -0.71982        -1.25723
C          0.11522        -1.33798        -1.74256
C          1.24645        -0.76225        -0.89105
C          2.57723        -1.50090        -0.84736
C          3.87571        -0.75692        -0.77601
C          5.17258        -1.53052        -0.76628
C          6.36527        -0.73998        -0.35636
C          7.34535        -1.36436         0.57912
C          8.68275        -0.70828         0.71964
C          9.89921        -1.53274         0.35083
C         11.13167        -0.74830         0.76321
C         -9.19625        -3.07549         1.00422
C         -8.59296        -3.56706        -0.09133
C         -7.53448        -2.75557        -0.77999
C         -6.33138        -3.54884        -1.27578
C         -4.95254        -2.79377        -1.13213
C         -3.85130        -3.56839        -1.87517
C         -2.56594        -2.80931        -2.28833
C         -1.23160        -3.58592        -1.93564
C          0.10137        -2.88977        -1.82573
C          1.39227        -3.76374        -1.60997
C          2.65526        -2.94641        -1.26438
C          3.91146        -3.69854        -0.91008
C          5.06040        -2.95568        -0.31092
C          6.05715        -3.56551         0.38310
C          7.24254        -2.81247         0.87850
C          8.52976        -3.53031         1.12505
C          9.73286        -2.94331         0.90721
C         -8.80006        -4.96785        -0.64508
C         -7.49679        -5.69906        -0.38034
C         -6.22475        -4.85741        -0.46288
C         -5.06166        -5.71188        -0.99511
C         -3.85741        -5.06128        -1.66426
C         -2.55420        -5.84024        -1.66033
C         -1.25276        -5.07900        -1.61912
C         -0.17568        -5.66725        -0.67168
C          1.20210        -4.95495        -0.66838
C          2.45236        -5.72479        -0.31728
C          3.84356        -5.23358        -0.81483
C          4.97694        -5.81545         0.05256
C          5.82712        -4.93098         0.98797
C          7.10819        -5.66167         1.40551
C          8.41299        -4.93023         1.70401
C         -7.41273        -6.91896         0.18747
C         -6.06515        -7.48838         0.59114
C         -5.00863        -7.09265        -0.44817
C         -3.69237        -7.82193        -0.33566
C         -2.64987        -7.36476        -1.37573
C         -1.30611        -8.00824        -1.01178
C         -0.03438        -7.19356        -0.80958
C          1.14566        -7.86818        -0.18635
C          2.34899        -7.18250        -0.05039
C          3.61483        -8.02001         0.10510
C          4.84922        -7.22163         0.50600
C          5.66019        -7.65569         1.73825
C          7.00610        -6.96592         1.73297
C         -6.07900        -8.97977         0.82442
C         -5.07199        -9.78719         0.47319
C         -3.92322        -9.36043        -0.42436
C         -2.61782       -10.07879        -0.04184
C         -1.34224        -9.35989        -0.43230
C         -0.15356        -9.96506        -0.04729
C          1.06804        -9.27892         0.06092
C          2.24938       -10.08354         0.56157
C          3.33579        -9.16351         1.11932
C          4.62517        -9.87495         1.46274
C          5.71959        -9.16471         1.76739
O          2.72283       -10.90713        -0.50607
H          3.17598       -10.31867        -1.15615
O         -5.51797        -6.87716        -1.78373
O         -7.35117         1.49060        -1.08216
O         -8.13080        -1.86017        -1.79465
O         -6.05472        -4.48650         0.91424
O          5.05335        -4.69934         2.15230
O          6.19669         1.21530        -1.81652
O          6.92960         2.19966         1.50970
O          5.71028        -6.87370        -0.62708
O         -3.10100         9.12180         2.13040
H         -2.47597         8.34503         2.16578
O          3.68048         9.49733         1.96630
H          4.57962         9.22283         2.28707
O          3.07390         1.08491        -2.19490
O         -1.85618         6.73481         2.51868
H         -2.58694         6.17206         2.90064
O          3.57233         8.05249        -1.44670
O          3.20753        -1.21279         0.44176
O         -4.44786        -2.72547         0.22160
H         -4.97100        -3.35688         0.80975
O         -1.42234         8.97584        -1.35701
O          2.73162         4.75190         1.27844
H          2.97738         5.37556         2.00101
O         -7.31737        -2.15688         2.10071
H         -6.99475        -3.01032         1.69732
O         -2.55623       -10.23865         1.38412
H         -2.67122        -9.33824         1.77083
O         -0.31782        -7.80854        -2.08486
O         -1.46392         4.86135        -2.01508
O         -1.67911        -5.74113        -2.83566
O         -3.14530        -0.52081        -2.94046
O          3.68359        -3.18501        -2.26838
O          6.83080        -1.80063         1.87219
O          9.93871        -1.61228        -1.10762
H          9.27189        -2.26497        -1.40924
O          4.49700         3.68319        -1.81070
O         -3.28597         3.29735        -2.28732
H         -2.70446         3.01640        -3.02725
O         -1.25809         5.80976         1.57494
O         -9.09197        -4.94730        -2.04176
H         -8.27001        -4.67856        -2.52124
O          4.00499        -5.78507        -2.12696
H          3.46606        -5.23014        -2.74524
O          1.77882        -4.83100         0.65130
O         -4.24250        -4.47570        -2.94099
O         -0.43471         1.82680         0.74956
H         -0.17999         1.07178         1.32370
O          6.03105         4.37891         2.13471
O         -6.47218         4.76752        -0.62967
O         -3.99238         2.58733         1.03847
O          4.40704         6.59396         1.81982
O          1.04634        -0.25996         0.47813
O         -3.02536        -7.91222        -2.64572
H         -2.38539        -7.56421        -3.30658
O         -7.37524         4.82768         3.82278
H         -7.14190         5.75623         4.03144
O         -0.91997         1.27795        -2.77312
O          1.67630        -4.43961        -2.85085
H          1.51547        -3.82466        -3.59942
O         -0.39587        -3.31824        -3.11307
O          2.75494        -8.58258         2.30099
H          3.46722        -8.07537         2.78243
O         10.06683         1.61166        -1.19282
H         10.20755         0.72065        -1.58358
O          6.25731        -1.31937        -1.70594
O          6.82581         4.42936        -1.40790
H          6.06804         4.50980        -2.04709
O          0.06416         2.41374        -2.72787
O         -1.43347        -1.07404         0.12074
H         -0.65372        -0.77890         0.64986
O         -3.15019        -7.53742         0.97790
H         -3.92107        -7.29516         1.56967
O          8.79045         0.11100         1.92392
O          3.85839        -8.58124        -1.20410
H          4.42681        -7.92287        -1.68151
O         -4.14249         8.27057        -1.28347
H         -4.30681         7.42853        -1.75762
O         -9.73789        -0.59380        -0.22979
H         -9.67494        -1.11358        -1.06953
O         -2.60320        -2.77496        -3.71907
H         -2.91576        -3.65688        -4.02850
O          4.95781        -7.20842         2.92963
H          4.93301        -6.19783         2.88417
O         -6.59382        -3.84006        -2.65325
H         -6.94318        -3.01706        -3.06445
O        -10.44434         1.45840         1.30932
H        -10.62063         0.70903         0.69120
O          6.20444         8.35888         2.26500
H          5.98788         7.53084         2.75447
O         -5.63729        -6.90601         1.85875
H         -5.79728        -5.91486         1.77045
O         -0.74886        -5.43290         0.63442
H         -0.01008        -5.34213         1.28199
O          9.53378        -5.73390         1.33280
H          9.41947        -6.02106         0.40406
O          0.42166        -0.88017        -3.06146
H         -0.20201        -1.31768        -3.68580
O         -6.92487         0.44112         1.90862
H         -6.89765        -0.47631         2.28117
O         -3.34290         4.68094         2.11936
H         -3.75678         3.79307         2.27743
O         -4.28464        -9.79446        -1.74212
H         -4.87955        -9.12437        -2.14391
O         -5.32787         7.94162         2.86949
H         -4.54764         8.55518         2.87777
O         10.23398         2.78392         2.26797
H          9.51410         2.23285         2.64543
O          3.17993         5.69723        -2.21449
H          3.51688         6.57247        -2.51502
H         12.01904        -1.31233         1.09029
H         12.11383         1.10911         0.99062
H         10.89063         3.47704         0.44257
H          9.59781         5.61999         0.91751
H          8.35196         7.68893         0.42909
H          7.09510         9.77986        -0.23451
H          5.00530        11.06083        -0.44897
H          2.37889        11.23412         0.32647
H          0.24469        11.32313         0.37530
H         -2.23013        11.13926         1.09416
H         -4.95432        11.03879         0.38678
H         -6.96100         9.72961         0.94870
H         -7.80898         7.48989         2.38491
H         -8.95674         5.22262         2.50686
H         -9.44445         2.81661         3.54837
H        -10.19018         0.31307         3.93792
H         -9.77529        -2.02802         3.47842
H         -9.96565        -3.64750         1.54531
H         -9.64982        -5.47013        -0.11919
H         -8.31967        -7.51433         0.37899
H         -6.92159        -9.37957         1.41037
H         -5.12574       -10.86016         0.71397
H         -2.60972       -11.10243        -0.49398
H         -0.19175       -11.00368         0.31429
H          1.89472       -10.76718         1.37425
H          4.63595       -10.97518         1.47388
H          6.66312        -9.66086         2.04119
H          7.88369        -7.50998         2.11723
H          8.46472        -4.80837         2.82186
H         10.64219        -3.53886         1.09187
