         630
 CSIRO Nanostructure Databank - Neutral Graphene Oxide Data Set
C         22.89037        27.39263        -0.12137
C         22.90430        28.76335        -0.30358
C         22.88345        31.74008        -0.57351
C         22.90722        33.08270        -0.49513
C         23.01646        36.00307        -0.79247
C         23.01850        37.38939        -0.85791
C         22.99079        40.32643        -0.85233
C         22.99162        41.70282        -0.85641
C         23.00275        44.64881        -0.78169
C         23.01931        46.02101        -0.72123
C         25.36165        24.56422         0.12169
C         24.14223        25.25051        -0.02055
C         25.31917        27.35218        -0.56566
C         24.08766        26.63439        -0.22071
C         25.34304        28.81828        -0.48386
C         24.11986        29.48881        -0.44982
C         25.32037        31.62551         0.02269
C         24.17062        30.97428        -0.74953
C         25.33419        33.12130        -0.19920
C         24.16796        33.82447        -0.42037
C         25.41180        35.99475        -0.27803
C         24.18360        35.27459        -0.49631
C         25.41510        37.44301        -0.36402
C         24.19791        38.13982        -0.64306
C         25.41504        40.29697        -0.56766
C         24.19342        39.58254        -0.69305
C         25.41736        41.72870        -0.58215
C         24.19665        42.44735        -0.70761
C         25.43654        44.57755        -0.47259
C         24.20462        43.88752        -0.66710
C         25.45705        46.01646        -0.42970
C         24.24482        46.73296        -0.55961
C         25.45093        48.84731        -0.46641
C         24.26542        48.15952        -0.55478
C         27.88957        23.24615         0.91300
C         27.84712        24.58024         0.45936
C         26.60261        25.20497         0.05608
C         27.87735        27.38128        -0.28266
C         26.65228        26.58241        -0.43877
C         27.84877        28.79361        -0.43307
C         26.60870        29.52520        -0.47156
C         27.87153        31.62411        -0.23658
C         26.63858        30.92741        -0.30048
C         27.89375        33.06274         0.12780
C         26.57052        33.83250         0.11828
C         27.86073        35.96365         0.28497
C         26.58972        35.28846         0.00798
C         27.87693        37.48623         0.14454
C         26.62140        38.17238        -0.22620
C         27.88822        40.29614        -0.35418
C         26.64273        39.57849        -0.38878
C         27.89440        41.70441        -0.36453
C         26.65071        42.44190        -0.41677
C         27.90303        44.55846         0.09626
C         26.64775        43.84451        -0.33926
C         27.92698        46.03142        -0.22326
C         26.69920        46.73804        -0.32875
C         27.95039        48.87520        -0.30454
C         26.70027        48.16346        -0.36960
C         28.00499        50.29818        -0.25088
C         30.29709        23.35228         1.23357
C         29.08551        22.65440         1.31101
C         30.29993        24.67863         0.73519
C         29.07357        25.31169         0.37695
C         30.31524        27.42262        -0.07479
C         29.07892        26.70669         0.01447
C         30.30759        28.79262        -0.39010
C         29.08713        29.51334        -0.44455
C         30.36293        31.67281        -0.39885
C         29.09773        30.94720        -0.41005
C         30.38680        33.10453        -0.25309
C         29.15214        33.83903        -0.01960
C         30.38258        36.00133         0.12142
C         29.12827        35.21478         0.11179
C         30.36335        37.44992        -0.18286
C         29.15053        38.16600        -0.16600
C         30.36484        40.26368        -0.52266
C         29.13289        39.56761        -0.36377
C         30.36617        41.69380        -0.53625
C         29.14181        42.41821        -0.39117
C         30.37626        44.53830        -0.37684
C         29.16075        43.83008        -0.30130
C         30.39340        45.97634        -0.29704
C         29.15292        46.71499        -0.26393
C         30.42517        48.85460        -0.28963
C         29.17767        48.15323        -0.29894
C         30.44842        50.28249        -0.24433
C         29.20342        50.97246        -0.20654
C         32.83419        20.69214         2.22374
C         31.62212        21.35359         2.13188
C         32.80677        23.35064         1.16423
C         31.57477        22.82572         1.86293
C         32.80824        24.65699         0.73043
C         31.55294        25.39055         0.58095
C         32.80641        27.43696         0.01169
C         31.55404        26.71608         0.15358
C         32.80850        28.79221        -0.27130
C         31.57866        29.49186        -0.78342
C         32.81715        31.68054        -0.59541
C         31.57798        30.98075        -0.52737
C         32.83119        33.10356        -0.60866
C         31.60990        33.79258        -0.36815
C         32.84799        35.97958        -0.66714
C         31.68043        35.24542        -0.14045
C         32.78462        37.36603        -0.77716
C         31.57848        38.11251        -0.50597
C         32.81249        40.25235        -0.85044
C         31.58452        39.53654        -0.64172
C         32.82044        41.67603        -0.80184
C         31.59509        42.39760        -0.62616
C         32.83978        44.51750        -0.58184
C         31.60263        43.81931        -0.54856
C         32.85302        45.93642        -0.43696
C         31.62049        46.66423        -0.32589
C         32.89301        48.76831        -0.30547
C         31.65346        48.10341        -0.29143
C         32.92748        50.22467        -0.43533
C         31.69997        50.99777        -0.26494
C         33.04158        53.03196         0.13491
C         31.82206        52.39070        -0.12889
C         35.30278        19.05559         1.75707
C         35.33315        20.53184         2.07534
C         34.03913        21.23599         1.77213
C         35.31742        23.25141         0.93286
C         34.01893        22.47660         0.92753
C         35.31857        24.59552         0.51350
C         34.05729        25.32302         0.37888
C         35.28056        27.35589        -0.31229
C         34.03977        26.68162         0.10686
C         35.35723        28.83161        -0.20247
C         34.04933        29.57338        -0.20296
C         35.29697        31.65692        -0.74630
C         34.06941        30.99087        -0.58060
C         35.30208        33.09031        -0.89607
C         34.07014        33.80494        -0.78564
C         35.27258        35.90187        -1.19099
C         34.06378        35.23487        -0.91236
C         35.25272        37.33380        -1.50432
C         33.94431        38.10065        -1.31597
C         35.24638        40.23273        -1.31910
C         34.01945        39.55775        -1.13659
C         35.27665        41.67106        -1.15746
C         34.05168        42.37669        -0.91216
C         35.29861        44.49176        -0.70900
C         34.06317        43.79586        -0.75167
C         35.31219        45.89241        -0.46568
C         34.09063        46.62106        -0.37373
C         35.34981        48.69625         0.05817
C         34.12274        48.04792        -0.23934
C         35.41985        50.10762         0.27430
C         34.29836        50.94590        -0.14424
C         35.44679        52.90301         0.86609
C         34.25649        52.33957         0.28877
C         35.50095        54.29694         1.17137
C         37.74950        19.02153         1.61542
C         36.45493        18.36250         1.62977
C         37.76506        20.45165         1.45625
C         36.56079        21.18615         1.48594
C         37.79504        23.23722         0.89467
C         36.54895        22.55945         1.11967
C         37.80100        24.62120         0.53911
C         36.56567        25.25637         0.30381
C         37.82998        27.40047        -0.22206
C         36.58589        26.61619        -0.23439
C         37.78762        28.76600        -0.59501
C         36.58994        29.51537        -0.62375
C         37.76077        31.64246        -1.04180
C         36.55574        30.92898        -0.81221
C         37.77716        33.05627        -1.14577
C         36.53339        33.78617        -1.09415
C         37.71502        35.93250        -1.55023
C         36.51699        35.21083        -1.26092
C         37.75037        37.35603        -1.59918
C         36.51186        38.09285        -1.48991
C         37.73604        40.21260        -1.70829
C         36.46897        39.48752        -1.50938
C         37.75033        41.72051        -1.53083
C         36.49084        42.39163        -1.17597
C         37.77181        44.47536        -0.79664
C         36.53158        43.78405        -0.88765
C         37.78330        45.86232        -0.43010
C         36.55011        46.55930        -0.26950
C         37.75386        48.51013         0.60437
C         36.56227        47.92223         0.13966
C         37.57663        49.75951         1.44382
C         36.53826        50.69790         0.87973
C         37.78546        52.67658         1.75984
C         36.58995        52.09138         1.15005
C         37.79510        54.10928         2.01936
C         36.62612        54.86912         1.70023
C         40.16863        16.17878         1.82902
C         38.99136        16.87212         1.82022
C         40.21136        18.98792         1.44832
C         38.96023        18.29672         1.62456
C         40.22841        20.39487         1.23194
C         39.00886        21.12568         1.21252
C         40.26520        23.21809         0.76955
C         39.01974        22.52717         0.97026
C         40.26872        24.64665         0.56638
C         39.04918        25.33667         0.40262
C         40.27239        27.48517         0.01115
C         39.05514        26.74965         0.06210
C         40.31184        28.80039        -0.48771
C         39.05657        29.41216        -0.95010
C         40.30875        31.64507        -1.16333
C         39.02947        30.91911        -1.21910
C         40.26578        33.05821        -1.38455
C         39.01661        33.73009        -1.39327
C         40.24277        35.88839        -2.03459
C         38.94805        35.15297        -1.79045
C         40.26742        37.41337        -2.16263
C         38.98673        38.07746        -1.69027
C         40.23571        40.20789        -1.46406
C         39.01096        39.47962        -1.59870
C         40.23629        41.63242        -1.25172
C         39.02807        42.37301        -1.20993
C         40.25040        44.45516        -0.78425
C         39.02292        43.76196        -0.91837
C         40.24842        45.96463        -0.78481
C         38.99461        46.55904        -0.21540
C         40.24236        48.48285         0.73003
C         38.99893        47.84367         0.39520
C         40.20019        49.69880         1.56870
C         38.88671        50.42148         1.84869
C         40.12990        52.49085         2.64828
C         38.89193        51.88605         2.09312
C         40.15041        53.98449         3.00505
C         38.93368        54.76260         2.53569
C         40.19870        56.79057         3.08797
C         39.00041        56.15610         2.75800
C         42.63596        16.13919         1.61201
C         41.42325        16.84707         1.63563
C         42.67926        18.94213         1.23857
C         41.43519        18.26326         1.45041
C         42.67759        20.34314         1.01105
C         41.47312        21.07462         1.00730
C         42.73260        23.21144         0.69846
C         41.47268        22.50072         0.78934
C         42.73022        24.66462         0.59885
C         41.52322        25.34952         0.51191
C         42.78677        27.50045         0.06608
C         41.51873        26.86009         0.57343
C         42.78618        28.86537        -0.31453
C         41.52059        29.55016        -0.60124
C         42.82558        31.56595        -1.37014
C         41.50674        30.91405        -1.00273
C         42.79044        33.08536        -1.42046
C         41.51917        33.79412        -1.55162
C         42.73795        35.94489        -1.89411
C         41.49461        35.16671        -1.75672
C         42.72865        37.39796        -1.60036
C         41.51043        38.08719        -1.61820
C         42.70809        40.18899        -1.16821
C         41.48160        39.49170        -1.40238
C         42.70355        41.60786        -1.00102
C         41.47183        42.32473        -1.02302
C         42.71177        44.45962        -0.73604
C         41.46793        43.74655        -0.84897
C         42.69659        45.89034        -0.47150
C         41.52117        46.58979        -0.28796
C         42.70536        48.62486         0.47777
C         41.49799        47.92973         0.29422
C         42.77053        49.83548         1.32545
C         41.49816        50.39727         1.86463
C         42.73193        52.57894         2.37338
C         41.46494        51.79728         2.41569
C         42.71525        53.94292         2.64533
C         41.40922        54.69819         2.47868
C         42.65554        56.74246         3.25766
C         41.43235        56.11487         3.00858
C         43.84770        16.80589         1.42634
C         45.18443        18.90028         1.13052
C         43.90422        18.19627         1.24756
C         45.21108        20.30440         0.96557
C         43.94341        21.02064         0.56066
C         45.18359        23.24424         0.93791
C         43.92045        22.51045         0.78508
C         45.20773        24.68481         0.60911
C         43.99765        25.37652         0.49859
C         45.24922        27.47619         0.08282
C         44.00862        26.79576         0.22030
C         45.24907        28.88966        -0.20263
C         44.01187        29.55946        -0.41005
C         45.28919        31.70132        -0.84877
C         43.97127        31.06854        -0.47945
C         45.28461        33.08365        -1.23070
C         43.99566        33.75295        -1.46353
C         45.24303        35.97677        -1.46922
C         44.02721        35.20074        -1.75265
C         45.21476        37.35536        -1.33269
C         43.95324        38.07357        -1.33424
C         45.18575        40.19269        -0.94911
C         43.94818        39.48260        -1.14294
C         45.18101        41.60701        -0.83478
C         43.93934        42.31013        -0.84815
C         45.18126        44.44378        -0.77143
C         43.92099        43.73584        -0.74247
C         45.17177        45.83756        -0.83876
C         44.00141        46.56958        -0.28688
C         45.19233        48.93006         0.05831
C         44.00767        48.01980         0.12936
C         45.21413        50.12774         0.88350
C         44.00251        50.65713         1.39820
C         45.20104        52.66572         2.12612
C         43.97551        51.93893         1.98936
C         45.20096        54.00356         2.63195
C         43.93211        54.68607         2.80477
C         43.86899        56.05804         3.12393
C         47.62183        18.88165         1.07932
C         46.41236        18.21149         1.22007
C         47.65907        20.27875         0.96045
C         46.44304        20.98748         0.93512
C         47.72775        23.18980         0.72211
C         46.46531        22.47211         0.99517
C         47.70060        24.61620         0.55278
C         46.46817        25.34657         0.46600
C         47.72888        27.44221         0.13026
C         46.48711        26.75844         0.23019
C         47.74591        28.95377         0.19031
C         46.47614        29.60386        -0.29084
C         47.75372        31.65083        -0.87603
C         46.50639        30.98542        -0.67559
C         47.77357        33.14985        -0.91466
C         46.47801        33.79054        -1.34244
C         47.73216        36.00099        -1.36335
C         46.50449        35.24175        -1.79025
C         47.72109        37.36636        -1.17885
C         46.45267        38.09502        -1.14244
C         47.68528        40.18000        -0.48697
C         46.42482        39.46590        -0.92378
C         47.66865        41.66708        -0.74131
C         46.44122        42.34124        -0.79199
C         47.66193        44.51523        -0.86977
C         46.43299        43.76893        -0.84397
C         47.63737        45.94272        -1.04221
C         46.37038        46.47819        -1.20480
C         47.67488        49.01026        -0.24338
C         46.34246        48.60569        -0.62903
C         47.67052        50.42445         0.27760
C         46.41978        50.83081         1.02693
C         47.67862        52.72634         1.98220
C         46.43363        52.06841         1.71964
C         47.64755        54.00057         2.56054
C         46.43761        54.64029         2.84359
C         50.16676        20.43397         1.38837
C         48.96704        20.97434         0.64967
C         50.17232        23.18557         0.67414
C         48.92278        22.48589         0.73380
C         50.17388        24.59425         0.46620
C         48.93468        25.30068         0.38604
C         50.19813        27.37262        -0.04377
C         48.93757        26.71672         0.17057
C         50.16253        28.75189        -0.54100
C         48.96301        29.56256        -0.44630
C         50.25326        31.60769        -0.96768
C         48.99193        30.93159        -0.79856
C         50.33645        32.98275        -1.58242
C         49.01307        33.76931        -1.56305
C         50.22617        35.97649        -1.06989
C         49.00175        35.26591        -1.52007
C         50.24464        37.44294        -1.17488
C         48.96946        38.13280        -1.14163
C         50.16806        40.27840        -0.98978
C         48.94971        39.51278        -0.97324
C         50.15131        41.65204        -0.82210
C         48.89721        42.39191        -0.76530
C         50.13971        44.58402        -0.97785
C         48.88750        43.80212        -0.84588
C         50.15177        46.09739        -1.05379
C         48.84720        46.89975        -1.22053
C         50.09416        48.80829         0.03044
C         48.82765        48.23821        -0.40914
C         50.11934        50.08925         0.69400
C         48.92919        50.82419         0.97210
C         50.17094        52.51516         2.19454
C         48.93277        52.02186         1.70347
C         51.32502        21.12954         1.39091
C         52.63405        23.17314         0.70406
C         51.39699        22.49178         0.88718
C         52.63386        24.56244         0.40198
C         51.42326        25.27752         0.33046
C         52.67623        27.42636         0.08442
C         51.41920        26.69773         0.06105
C         52.67063        28.81106        -0.02571
C         51.51617        29.50987        -0.56946
C         52.70683        31.67509        -0.67654
C         51.47777        30.97624        -0.68300
C         52.75427        33.09050        -0.89258
C         51.56316        33.76609        -1.14773
C         52.75833        36.00974        -0.94664
C         51.52144        35.22344        -0.93972
C         52.69479        37.38711        -0.94653
C         51.45055        38.10950        -1.07563
C         52.72135        40.32623        -1.05048
C         51.45324        39.58370        -1.40070
C         52.70906        41.73044        -0.91679
C         51.41985        42.39532        -0.63294
C         52.66730        44.63859        -0.78246
C         51.40551        43.89609        -0.59306
C         52.63126        46.05542        -0.63778
C         51.39314        46.77384        -0.60303
C         52.59811        48.76121         0.19189
C         51.34568        48.10649        -0.12987
C         52.59391        50.08176         0.71358
C         51.35581        50.68612         1.09398
C         51.34555        51.88096         1.86343
C         55.09956        23.14536         0.69360
C         53.89319        22.48655         0.81174
C         55.17812        24.53548         0.42907
C         53.92176        25.24280        -0.01129
C         55.12877        27.38743         0.47517
C         53.93407        26.72341         0.27801
C         55.13285        28.86501         0.65451
C         53.85814        29.60175         0.32965
C         55.24460        31.63405        -0.47196
C         53.90788        31.03812        -0.09729
C         55.20895        33.14589        -0.48516
C         54.01836        33.80279        -0.74946
C         55.27094        35.96703        -0.65256
C         54.05149        35.25438        -1.16963
C         55.21973        37.44523        -0.55345
C         53.93832        38.17108        -0.74363
C         55.16729        40.31708        -1.12019
C         53.96465        39.62673        -1.04061
C         55.14392        41.77035        -1.31593
C         53.89297        42.49475        -1.01749
C         55.12060        44.66817        -0.84763
C         53.88600        43.93113        -0.90302
C         55.10322        46.01353        -0.48283
C         53.87021        46.73097        -0.37996
C         55.09071        48.82294         0.20162
C         53.84993        48.10246         0.00055
C         55.02009        50.21132         0.53917
C         53.82155        50.80042         0.83234
C         57.66168        24.56119         0.34662
C         56.40501        25.24377         0.39446
C         57.62364        27.38766         0.41988
C         56.40586        26.68913         0.43121
C         57.74897        28.85376         0.80190
C         56.43161        29.62759         0.67910
C         57.66823        31.70905         0.05790
C         56.46273        31.03528         0.19891
C         57.68053        33.15055        -0.19518
C         56.46795        33.84416        -0.39215
C         57.69628        36.02713        -0.10763
C         56.44073        35.29334        -0.41371
C         57.72956        37.53493        -0.32702
C         56.49437        38.16153        -0.86398
C         57.74909        40.38297        -0.99388
C         56.47844        39.62897        -1.17317
C         57.73853        41.79069        -1.05147
C         56.47096        42.51001        -1.34957
C         57.70516        44.71016        -0.87558
C         56.41792        44.00232        -1.16799
C         57.65413        46.07839        -0.34791
C         56.34394        46.66124         0.08941
C         57.58429        48.83432         0.25991
C         56.33270        48.16586         0.10182
C         58.83851        25.25325         0.21589
C         60.05456        27.39516         0.02036
C         58.85095        26.68038         0.23704
C         60.07886        28.78652        -0.07049
C         58.93798        29.56218         0.18981
C         60.13067        31.72272        -0.01977
C         58.93373        30.98547         0.11865
C         60.13343        33.10629        -0.12473
C         58.93914        33.85861        -0.18374
C         60.14439        36.06074        -0.27962
C         58.97226        35.30231        -0.19653
C         60.16420        37.46375        -0.44489
C         59.00397        38.23001        -0.56547
C         60.17503        40.41311        -0.71910
C         58.96903        39.66055        -0.79020
C         60.16638        41.78650        -0.72766
C         58.95479        42.52967        -0.84978
C         60.13829        44.71578        -0.50823
C         58.96539        43.95432        -0.74967
C         60.09239        46.07848        -0.28247
C         58.84027        46.76699        -0.13439
C         58.78578        48.16863         0.20554
O         57.58417        36.97517         1.01138
O         50.94527        28.89481        -1.76720
O         51.38327        43.13986         0.65845
O         27.84476        36.84900         1.46553
O         39.49842        35.31230        -3.17078
O         56.58498        38.59337        -2.24809
O         50.65709        35.50726         0.25504
O         35.85397        26.78777        -1.52558
O         55.81562        42.13627        -2.60292
O         50.34270        45.26766        -2.26742
O         34.37557        37.65465        -2.64484
O         48.93380        34.52156        -2.80114
O         57.12134        44.67199        -2.27509
O         45.84151        22.95293         2.25345
O         31.29043        35.64776         1.21952
O         43.49545        35.55171        -3.10653
O         39.04517        29.93321        -2.31793
O         26.00858        26.79960        -1.73621
O         42.31324        49.52122         2.71596
O         46.22572        47.75914        -1.72304
O         40.78996        51.75453         3.72860
O         39.49254        49.56726         2.87116
O         27.19560        33.32832         1.39331
O         44.28715        46.91594         1.13025
O         53.63955        30.69282         1.29699
O         33.81386        50.70076        -1.49326
O         54.50176        37.94151         0.62544
O         34.80634        29.32271         1.05939
O         55.66305        29.37827         1.92331
O         37.71721        41.11433        -2.87493
O         47.70608        40.03494         0.98211
H         48.50605        40.49737         1.31235
O         31.66092        29.37022        -2.25786
H         31.57168        28.41908        -2.48191
O         36.96592        49.28222         2.68948
H         37.71174        48.96287         3.25100
O         35.49809        20.62238         3.54064
H         36.30814        20.11982         3.77254
O         25.09723        31.42538         1.44220
H         25.78050        31.96264         1.91005
O         47.62560        51.25419        -0.95723
H         48.36375        50.95704        -1.53209
O         56.26628        46.28174         1.53764
H         56.95527        46.80174         2.00591
O         55.39911        31.23512        -1.88647
H         56.21742        31.65351        -2.22971
O         41.23500        54.78927         1.02659
H         41.96161        55.34490         0.67346
O         24.53155        31.08829        -2.15905
H         23.86173        30.60451        -2.68562
O         31.59760        23.44408         3.20941
H         31.57815        24.41728         3.08353
O         48.82633        47.35378        -2.59255
H         49.17875        46.61530        -3.14016
O         43.65407        31.53612         0.87382
H         44.31521        31.15221         1.48750
O         53.94024        25.14778        -1.49096
H         53.93149        24.19365        -1.71881
O         46.52623        35.21871        -3.26552
H         45.59765        35.14068        -3.58067
O         40.21362        46.33952        -2.22757
H         39.42753        45.90218        -2.62095
O         47.94702        33.57074         0.50325
H         47.33393        33.03688         1.05281
O         41.48908        27.18010         2.02142
H         42.26001        26.73385         2.43314
O         43.13498        31.11364        -2.71544
H         42.39939        31.37934        -3.30648
O         49.20467        20.67331        -0.77308
H         50.05306        21.09838        -1.02183
O         47.84921        29.27751         1.64971
H         47.20971        28.70090         2.12052
O         40.31469        37.70637        -3.59170
H         39.79130        37.00057        -4.03959
O         27.87705        44.50168         1.57812
H         27.86578        43.55378         1.83175
O         51.42510        39.61019        -2.87950
H         51.41491        40.54857        -3.16572
O         50.61148        32.68126        -2.99526
H         50.21668        33.41573        -3.52490
O         58.09822        28.82180         2.22344
H         57.24209        28.83309         2.71613
O         33.86564        21.99188        -0.46852
H         33.92089        22.77593        -1.05666
O         43.94023        20.88924        -0.92228
H         43.06855        21.20772        -1.24202
O         40.13774        54.09295         4.44325
H         40.50769        53.24864         4.79649
O         54.18915        35.23341        -2.64301
H         54.93138        34.63278        -2.86746
H         21.94157        26.87291         0.07547
H         21.95077        29.30724        -0.26561
H         21.91708        31.21869        -0.63292
H         21.96024        33.63672        -0.43827
H         22.07324        35.47602        -0.98598
H         22.07658        37.89955        -1.09720
H         22.03094        39.80364        -0.95638
H         22.03290        42.22614        -0.96770
H         22.04123        44.13701        -0.92023
H         22.08256        46.58938        -0.81387
H         25.31386        23.50045         0.39283
H         23.20441        24.69888         0.13958
H         25.42766        49.94493        -0.48603
H         23.31481        48.70508        -0.64313
H         26.96509        22.65752         0.97938
H         27.07540        50.88232        -0.23487
H         29.06335        21.62450         1.69181
H         29.19203        52.06986        -0.16371
H         32.84837        19.69352         2.68800
H         30.72062        20.86092         2.52205
H         33.00160        54.11049         0.34160
H         30.91609        53.01278        -0.11211
H         34.33733        18.53013         1.73095
H         34.63303        54.93426         0.95821
H         36.41117        17.27472         1.47666
H         36.61593        55.94899         1.89453
H         40.16920        15.08990         1.98321
H         38.05040        16.32811         1.97793
H         40.19249        57.86186         3.33968
H         38.10068        56.78040         2.66688
H         42.62829        15.04803         1.74631
H         42.66509        57.79758         3.56920
H         44.77003        16.21032         1.42443
H         44.79769        56.61768         3.29765
H         48.55571        18.30303         1.06778
H         46.43108        17.12129         1.34812
H         48.58205        54.53901         2.76928
H         46.47238        55.65967         3.25065
H         50.13399        19.42136         1.81537
H         50.20384        53.41885         2.81709
H         52.22189        20.68713         1.84811
H         52.29154        52.29690         2.23354
H         56.02183        22.57451         0.87267
H         53.89984        21.41124         1.03391
H         55.93907        50.80480         0.62536
H         53.80852        51.85639         1.13149
H         57.68236        23.46313         0.33365
H         57.60122        49.92171         0.41581
H         59.79031        24.71421         0.10342
H         60.97858        26.82728        -0.16168
H         61.01476        29.27212        -0.38175
H         61.09617        31.20065         0.01475
H         61.10222        33.62261        -0.15050
H         61.11755        35.55019        -0.28738
H         61.14924        37.93785        -0.55734
H         61.13420        39.89182        -0.60206
H         61.12094        42.31757        -0.62161
H         61.11935        44.22168        -0.50475
H         61.02528        46.63948        -0.13070
H         59.72763        48.71752         0.34474
