         324
 CSIRO Nanostructure Databank - Neutral Graphene Oxide Data Set
C          1.34837         1.92360        -0.66579
C          1.34095         3.33775        -0.69555
C          2.52407         1.22510        -0.52273
C          2.52131         4.07049        -0.56982
C          1.42947         6.25551        -1.02650
C          1.45273         7.67625        -1.10850
C          2.53304         5.53038        -0.59062
C          2.52337         8.41430        -0.68150
C          1.43417        10.64054        -1.33917
C          1.54146        11.97226        -1.57135
C          2.49700         9.89566        -0.65406
C          2.75105        12.71902        -1.30837
C          1.66399        14.87041        -2.03670
C          1.70999        16.17970        -2.41372
C          2.84300        14.10675        -1.70143
C          2.98194        16.82830        -2.71533
C          3.08585        18.29108        -2.88334
C          3.77749         1.91367        -0.40881
C          3.76607         3.36735        -0.40481
C          4.95416         1.19135        -0.23380
C          4.94017         4.09300        -0.15646
C          3.74456         6.23632        -0.24721
C          3.69741         7.73626        -0.00731
C          4.91343         5.52512        -0.03111
C          5.01017         8.47955        -0.24000
C          3.80125        10.64321        -0.40809
C          3.89298        12.05311        -0.84009
C          5.05517         9.85296        -0.28449
C          5.14707        12.72854        -0.68824
C          4.08384        14.75929        -1.61024
C          4.24339        16.08621        -2.21425
C          5.21992        14.14199        -0.99543
C          5.43754        16.87493        -1.90326
C          4.27952        18.91873        -2.80753
C          5.49654        18.26942        -2.32339
C          6.25619         1.83466        -0.21870
C          6.23521         3.40033        -0.14028
C          7.45585         1.17105         0.26125
C          7.39611         4.01694         0.55362
C          6.22111         6.24057         0.02384
C          6.28228         7.73719        -0.15405
C          7.37999         5.57581         0.67413
C          7.50532         8.45874         0.26111
C          6.31028        10.57991        -0.16613
C          6.30340        11.99905        -0.30997
C          7.49457         9.88174         0.21528
C          7.48896        12.76196         0.11373
C          6.39274        14.90911        -0.76519
C          6.48463        16.27071        -1.21473
C          7.48436        14.27518         0.00807
C          7.78416        17.00864        -1.14967
C          6.62280        19.02161        -2.13226
C          7.79989        18.54793        -1.32190
C          8.67797         1.87391         0.40413
C          8.66241         3.31213         0.53891
C          9.87420         1.15378         0.65910
C          9.87593         4.02560         0.92797
C          8.63961         6.31139         0.77316
C          8.66713         7.70470         0.58832
C          9.87569         5.57923         1.08475
C          9.90661         8.43240         1.06865
C          8.75057        10.60192         0.42472
C          8.78317        12.06107         0.28503
C          9.90557         9.88541         0.66900
C          9.96560        12.78129         0.33549
C          8.78210        15.03856         0.29349
C          8.92257        16.32694        -0.47993
C         10.06153        14.22038         0.14541
C         10.17948        17.02739        -0.11801
C          9.12294        19.03884        -1.89428
C         10.28913        18.91192        -1.18131
C         11.16672         1.80843         0.55246
C         11.16812         3.35680         0.60370
C         12.42716         1.17600         0.91747
C         12.42735         4.04741         0.91032
C         11.16467         6.28665         0.86655
C         11.20557         7.66754         0.81783
C         12.39983         5.50631         0.70640
C         12.47306         8.35297         0.87035
C         11.20230        10.57886         0.60884
C         11.19902        12.06308         0.73093
C         12.48955         9.82729         0.70743
C         12.49872        12.77702         0.69736
C         11.27397        14.87133        -0.04556
C         11.39144        16.33292        -0.19424
C         12.53763        14.09948         0.00260
C         12.62362        17.02588        -0.45113
C         11.66088        19.15604        -1.46610
C         12.72568        18.41483        -0.87274
C         13.59602         1.89816         1.09541
C         13.62367         3.35752         1.04712
C         14.82037         1.21014         1.39449
C         14.87570         4.05747         1.30760
C         13.74793         6.23627         0.80994
C         13.68619         7.68049         1.01436
C         14.92922         5.48798         1.26774
C         14.90512         8.35351         1.40250
C         13.78968        10.55645         0.97831
C         13.80714        12.05072         0.81637
C         14.87458         9.74319         1.59427
C         14.93401        12.96898         1.16393
C         13.85886        14.78871        -0.15081
C         13.87830        16.25041        -0.48334
C         15.04937        14.20134         0.52117
C         15.20878        16.97301        -0.35250
C         13.99728        19.06721        -0.78687
C         15.18137        18.44903        -0.35524
C         15.99052         1.88397         1.64498
C         16.04059         3.32096         1.63613
C         17.22620         1.09635         2.00312
C         17.27524         3.99506         1.97420
C         16.06286         6.20169         1.70917
C         16.09722         7.62983         1.73952
C         17.22568         5.45540         2.22041
C         17.32339         8.35482         2.03239
C         15.98290        10.32891         2.23643
C         16.01893        12.50793         1.93458
C         17.26426         9.77693         2.23239
C         17.32068        12.95545         1.76191
C         16.28387        14.91086         0.63545
C         16.37147        16.28333         0.25063
C         17.43935        14.24530         1.16190
C         17.53734        17.01064         0.51066
C         16.37413        19.13562        -0.06963
C         17.56231        18.45397         0.31890
C         18.48938         1.87440         1.74268
C         18.47910         3.29595         2.00741
C         19.61397         1.24313         1.28108
C         19.78648         3.96612         2.26120
C         18.53007         6.23228         2.46906
C         18.55821         7.68354         2.20649
C         19.82140         5.46638         2.49846
C         19.80659         8.41319         2.26831
C         18.45763        10.61907         2.54427
C         18.48104        12.18072         2.28111
C         19.78804         9.88042         2.60178
C         19.79650        12.84244         2.09617
C         18.67644        14.94161         1.27449
C         18.71237        16.33254         0.98421
C         19.84433        14.23748         1.74335
C         19.91903        17.06614         1.16720
C         18.74674        19.15702         0.57848
C         19.94263        18.49405         0.97847
C         20.83926         1.96088         1.06051
C         21.01825         3.26733         1.73935
C         21.84673         1.43442         0.28987
C         22.26854         4.07082         1.40590
C         21.08388         6.25427         2.24101
C         21.00972         7.73510         2.14510
C         22.31153         5.55214         1.68572
C         22.33505         8.41994         2.08705
C         21.09297        10.66980         2.65997
C         20.98483        12.16528         2.45037
C         22.40889         9.91173         2.33751
C         22.13195        12.96657         2.61474
C         21.06755        14.96435         1.78570
C         21.10365        16.37539         1.52182
C         22.26834        14.29530         2.15664
C         22.32912        17.08695         1.65083
C         21.14113        19.19527         1.19680
C         22.34847        18.51611         1.51071
C         23.00053         2.20356        -0.09738
C         23.17891         3.53123         0.37457
C         23.88101         1.67928        -1.06561
C         24.24102         4.32199        -0.12302
C         23.34545         6.37731         1.00423
C         23.40972         7.76144         1.26659
C         24.36307         5.73904         0.25303
C         24.50235         8.51195         0.75009
C         23.61036        10.59214         1.75750
C         23.89654        11.92256         2.16522
C         24.57751         9.93993         0.97255
C         24.73939        12.78090         1.47783
C         23.54878        14.93817         1.98240
C         23.55511        16.37650         1.82869
C         24.73258        14.21213         1.65188
C         24.77210        17.08443         1.82904
C         23.57697        19.20760         1.63385
C         24.80026        18.51181         1.75856
C         24.94954         2.44382        -1.54819
C         25.13983         3.75520        -1.04694
C         25.80508         1.94424        -2.61514
C         26.26490         4.58945        -1.60720
C         25.49984         6.47471        -0.14647
C         25.58074         7.86321         0.08133
C         26.69828         5.65905        -0.59385
C         26.77215         8.61695        -0.33147
C         25.69076        10.68920         0.44024
C         25.63242        12.16328         0.49511
C         26.80645        10.06254        -0.13285
C         26.83880        12.99025         0.03657
C         25.93512        14.91986         1.33331
C         26.02507        16.31634         1.80124
C         27.01954        14.32648         0.66138
C         27.32373        17.06877         1.58915
C         26.04984        19.20772         1.68099
C         27.27216        18.54642         1.50458
C         26.95533         2.58705        -2.97349
C         27.45152         3.71735        -2.09243
C         27.78277         2.15068        -4.07500
C         28.45893         4.60417        -2.79224
C         27.84261         6.49754        -1.14104
C         27.82328         7.96256        -0.94940
C         28.74834         5.93177        -2.20867
C         29.10485         8.64224        -1.24544
C         27.97119        10.84706        -0.51877
C         27.99979        12.23088        -0.45506
C         29.21034        10.14644        -0.94087
C         29.14379        13.04347        -0.93338
C         28.25096        15.02540         0.49516
C         28.41948        16.36353         0.90295
C         29.30003        14.44251        -0.37343
C         29.59719        17.09618         0.58686
C         28.47509        19.21748         1.21576
C         29.65034        18.51104         0.84427
C         28.85411         2.88342        -4.48798
C         29.16829         4.16458        -3.88102
C         30.25264         4.98475        -4.41759
C         29.48002         6.93457        -3.08605
C         30.01513         8.09308        -2.26225
C         30.45930         6.25286        -4.01056
C         31.12964         8.80700        -2.61229
C         30.31728        10.87416        -1.57204
C         30.35724        12.38659        -1.60630
C         31.29653        10.17711        -2.22896
C         31.66152        12.94814        -1.08428
C         30.64354        15.05415        -0.33127
C         30.75659        16.41636         0.07111
C         31.77333        14.22627        -0.62061
C         31.96615        17.14857        -0.06343
C         30.87299        19.19843         0.64220
C         32.01262        18.51227         0.22234
O         22.19999         5.86476         3.10146
O         17.63269         5.87584         3.56404
O          3.85151        16.10017        -3.63311
O          6.54360         6.80529        -1.29063
O          7.03147         4.72207         1.79031
O         13.28883        13.99908        -1.25173
O         15.74764        11.53572         2.88795
O         22.78885         8.96163         3.37559
O         11.75950        12.68596         1.95591
O         20.47875        10.16076         3.86465
O          7.07089        13.62789         1.26189
O         28.71593        14.20325        -1.73484
O         18.30408        11.58607         3.60613
O         14.74683        16.46446        -1.65033
O         11.20987         2.67495        -0.66485
O         14.22300        11.19813        -0.29258
O         29.15995         5.91826        -0.80847
O         23.21534        12.39994         3.29444
O         22.17477         3.26805         2.62241
O         11.94080        10.17601        -0.61576
O          9.86391         4.68452         2.23920
O         25.64573        12.85131        -0.80130
O         13.19247         5.84522        -0.48579
O         26.96451        16.53911         2.91150
O         19.92033         4.52995         3.60063
O         10.14258        18.36829         0.16448
O          6.54840         2.73030        -1.37300
O          8.78595        16.25452        -1.93990
O         29.70677         9.13478        -0.00373
O          2.83902        10.43112         0.69234
O         28.11006         3.07232        -0.98242
H         28.23828         3.74552        -0.27048
O         27.16612         4.98473         0.60127
H         27.64401         5.63640         1.15606
O          8.74838        15.46593         1.67815
H          8.28145        14.75441         2.17930
O          3.47083         7.87073         1.43974
H          3.20409         8.81349         1.59005
O         17.23703        -0.16984         1.34276
H         17.15621        -0.01707         0.37928
O         25.75707         5.31991        -2.75224
H         25.46265         4.66712        -3.42200
O         30.33404        12.74089        -3.01968
H         29.86902        13.61092        -3.07585
O         28.44177         7.53071        -3.93173
H         28.88227         8.09543        -4.60119
O          9.80786         8.46409         2.53988
H          8.92200         8.81107         2.77906
O          7.58201        19.12015        -0.00478
H          8.43072        19.05483         0.49325
H          0.39563         1.38363        -0.75731
H          0.37598         3.85208        -0.79911
H          2.52217         0.12592        -0.50823
H          0.52072         5.73872        -1.36129
H          0.56393         8.17365        -1.52201
H          0.53926        10.10504        -1.68453
H          0.70866        12.48211        -2.07389
H          0.67968        14.41459        -1.86198
H          0.78597        16.77358        -2.47159
H          2.17270        18.85538        -3.12496
H          4.90230         0.10715        -0.05429
H          4.33859        20.00129        -2.99584
H          7.43190         0.08781         0.44748
H          6.61377        20.08341        -2.42266
H          9.82626         0.07033         0.83851
H          9.15210        19.42390        -2.92228
H         12.43065         0.09320         1.11286
H         11.93066        19.99864        -2.11935
H         14.81726         0.11056         1.42331
H         14.01971        20.14997        -0.98332
H         17.19102         0.87754         3.10827
H         16.39751        20.23264        -0.15412
H         19.56455         0.17606         1.01819
H         18.76162        20.25028         0.45441
H         21.71736         0.43714        -0.15639
H         21.15845        20.28806         1.07147
H         23.71734         0.66193        -1.44942
H         23.58801        20.30350         1.53974
H         25.48362         1.03937        -3.15405
H         26.03001        20.30672         1.62500
H         27.51491         1.21673        -4.59167
H         28.50265        20.31698         1.24842
H         29.47180         2.54002        -5.33045
H         30.92220         4.52578        -5.16084
H         31.28180         6.83851        -4.44688
H         31.84450         8.40031        -3.34172
H         32.14373        10.72498        -2.66500
H         32.57435        12.36022        -1.25847
H         32.77713        14.62130        -0.40387
H         32.86968        16.64761        -0.43607
H         30.91870        20.27982         0.83347
H         32.95647        19.05917         0.08891
