         732
 CSIRO Nanostructure Databank - Neutral Graphene Oxide Data Set
C         22.95635        24.78026        -1.91973
C         21.78971        25.50428        -2.11551
C         22.96856        27.59484        -1.69388
C         21.79199        26.89944        -1.99528
C         22.95101        29.04429        -1.46808
C         21.74096        29.77243        -1.40222
C         22.92269        31.85037        -0.91499
C         21.72905        31.14059        -1.17719
C         22.95464        33.30936        -0.82367
C         21.75248        34.09753        -1.06975
C         23.07017        36.21361        -1.33250
C         21.78553        35.43173        -1.25376
C         23.01894        37.57786        -0.63895
C         21.81803        38.17833        -0.20939
C         23.02353        40.13766         0.62454
C         21.83166        39.42153         0.41826
C         23.02257        41.47563         1.21513
C         21.82062        42.04381         1.68623
C         23.04488        43.95831         2.44919
C         21.83962        43.25587         2.36178
C         23.01572        46.25727         2.41792
C         21.83768        46.98678         2.42830
C         22.91859        48.69646         1.12547
C         21.77397        48.19994         1.71847
C         25.43977        23.27887        -1.48026
C         25.40789        24.69570        -1.45486
C         24.17527        25.43778        -1.63389
C         25.43263        27.54759        -1.32154
C         24.19000        26.86213        -1.54412
C         25.47618        29.05119        -1.48153
C         24.15548        29.73508        -1.22461
C         25.35712        31.74268        -0.38982
C         24.13144        31.10138        -0.89518
C         25.34901        33.24212        -0.20044
C         24.14661        33.98949        -0.60956
C         25.41235        36.09118        -0.48023
C         24.25143        35.42719        -0.77735
C         25.51613        37.56941        -0.78770
C         24.21848        38.25825        -0.42541
C         25.47717        40.26064         0.30339
C         24.25681        39.55752         0.17398
C         25.54786        41.45997         1.22055
C         24.23589        42.20442         1.33928
C         25.51105        44.36819         2.01856
C         24.24113        43.51872         1.85719
C         25.40141        45.87290         1.63610
C         24.19469        46.66013         1.72294
C         25.37822        48.64904         0.84241
C         24.14843        47.98560         1.17070
C         25.40462        49.98407         0.27947
C         27.84330        23.26635        -1.08955
C         26.61755        22.58236        -1.29303
C         27.83936        24.67322        -1.09473
C         26.62779        25.39610        -1.24140
C         27.89129        27.54799        -1.03818
C         26.62501        26.84030        -1.18726
C         27.89536        28.95822        -0.81587
C         26.67152        29.69035        -0.81292
C         27.84022        31.76647        -0.13544
C         26.66487        31.06321        -0.47452
C         27.83168        33.19298         0.07765
C         26.64510        33.91807        -0.08488
C         27.89516        36.10985         0.24724
C         26.59048        35.37679         0.05879
C         27.93507        37.58525         0.00877
C         26.73265        38.27954        -0.25019
C         27.96511        40.44194         0.08493
C         26.71183        39.77540        -0.40354
C         27.95292        41.73386         0.56374
C         26.71659        42.38531         0.96638
C         27.92424        44.49876         1.22239
C         26.70492        43.71404         1.33095
C         27.88713        45.89639         1.30589
C         26.59517        46.56793         1.34841
C         27.82754        48.76335         1.17114
C         26.58169        47.97874         1.09332
C         27.79995        50.23679         0.77042
C         26.54517        50.71023         0.17189
C         30.34284        20.50299        -0.48640
C         29.13143        21.16874        -0.62465
C         30.34593        23.23332        -1.10834
C         29.09943        22.54170        -0.91150
C         30.34492        24.63525        -1.24411
C         29.12693        25.38267        -0.77984
C         30.33145        27.58413        -1.09320
C         29.11534        26.86169        -1.05331
C         30.33874        28.97462        -0.84000
C         29.12571        29.62765        -0.57863
C         30.39498        31.73851         0.01239
C         29.09976        30.96983         0.10302
C         30.35449        33.12727         0.60472
C         29.09221        33.91275         0.24911
C         30.41230        36.00636         0.08632
C         29.12479        35.28771         0.21387
C         30.43063        37.50408         0.05423
C         29.15939        38.25311         0.09266
C         30.46874        40.37983         0.35618
C         29.24474        39.72171        -0.22781
C         30.43507        41.73520         0.61089
C         29.19773        42.45530         0.72315
C         30.41647        44.55818         1.18669
C         29.17935        43.82265         1.02168
C         30.37266        45.99172         1.27781
C         29.11706        46.66329         1.22946
C         30.33652        48.80865         1.01133
C         29.12417        48.07190         1.15666
C         30.31882        50.21001         0.66436
C         29.09349        50.90199         0.47037
C         30.31628        52.91502        -0.13709
C         29.11149        52.25039         0.09816
C         32.87137        19.40342         0.39707
C         32.83268        20.44447        -0.48971
C         31.57787        21.15590        -0.73827
C         32.80061        23.18959        -1.73132
C         31.58004        22.50299        -1.12964
C         32.88290        24.64608        -1.34850
C         31.59576        25.35907        -1.48971
C         32.90176        27.55746        -1.26210
C         31.58112        26.86757        -1.44924
C         32.89823        29.05267        -1.04819
C         31.57310        29.82984        -1.08911
C         32.85915        31.75810        -0.02025
C         31.57606        31.11222        -0.27788
C         32.86061        33.15373         0.30183
C         31.64041        33.88048         0.36891
C         32.87951        35.99003         0.55618
C         31.66145        35.27413         0.38031
C         32.86938        37.45195         0.64933
C         31.68835        38.20040         0.40427
C         32.88251        40.26005         0.95157
C         31.69382        39.60760         0.53207
C         32.82984        41.69015         1.30372
C         31.73150        42.49259         0.66643
C         32.86504        44.57259         1.49160
C         31.64452        43.89302         1.19313
C         32.81555        46.02221         1.66150
C         31.57585        46.73585         1.34828
C         32.84319        48.85843         0.97723
C         31.58878        48.13679         1.14398
C         32.80248        50.23426         0.63716
C         31.55940        50.89745         0.44501
C         32.79263        52.90239        -0.41621
C         31.54497        52.25863        -0.00223
C         32.74637        54.12315        -1.13555
C         35.28908        19.12477         0.24180
C         34.08993        18.73009         0.74632
C         35.40832        20.24391        -0.76930
C         34.09305        20.97367        -1.07756
C         35.43689        23.16801        -1.64479
C         34.11043        22.39998        -1.56508
C         35.34808        24.62279        -1.17117
C         34.08983        25.32332        -1.13833
C         35.28756        27.44916        -0.61740
C         34.10446        26.76199        -0.92646
C         35.25704        28.87580        -0.31736
C         34.10412        29.64629        -0.43281
C         35.31849        31.72453         0.22519
C         34.07509        31.04608        -0.06062
C         35.33056        33.12246         0.46489
C         34.09095        33.84779         0.47498
C         35.32172        35.91205         1.07845
C         34.06719        35.24805         0.70031
C         35.29786        37.39687         1.22205
C         34.05488        38.14471         0.97399
C         35.33557        40.26859         1.40307
C         34.08165        39.55123         1.13751
C         35.35705        41.67232         1.55568
C         34.09688        42.42068         1.65853
C         35.34178        44.59246         1.45119
C         34.09563        43.89683         1.56845
C         35.36003        45.98287         1.25718
C         34.18173        46.80051         1.49205
C         35.32361        48.86801         0.65492
C         34.10111        48.18834         1.02129
C         35.32855        50.24227         0.45521
C         34.07667        51.04977         0.67448
C         35.23908        52.88410        -0.68442
C         34.03733        52.29297        -0.18727
C         35.16354        54.11207        -1.40423
C         33.89824        54.71483        -1.60195
C         37.70932        16.28181         0.72695
C         36.51253        16.98777         0.63880
C         37.75214        19.08152         0.42144
C         36.53026        18.38545         0.47307
C         37.66209        20.60480         0.43377
C         36.54748        21.18687        -0.43468
C         37.83901        23.21891        -0.95720
C         36.58270        22.47373        -0.89793
C         37.82314        24.63661        -1.17654
C         36.54772        25.32686        -1.00722
C         37.76900        27.41743        -0.48996
C         36.54588        26.73340        -0.66327
C         37.81068        28.78119         0.06285
C         36.48316        29.53227         0.18730
C         37.79017        31.65773         0.41436
C         36.54488        31.00061         0.25367
C         37.80750        33.07837         0.63077
C         36.58188        33.79300         0.67673
C         37.81283        35.88757         1.02630
C         36.60635        35.20268         0.89166
C         37.84309        37.36678         0.97135
C         36.56364        38.14310         0.99870
C         37.81084        40.24551         1.40340
C         36.57144        39.57798         1.31480
C         37.81877        41.66992         1.48665
C         36.58239        42.39393         1.50389
C         37.81306        44.50901         1.23652
C         36.58054        43.82353         1.39871
C         37.83006        45.91513         0.95267
C         36.54283        46.61196         0.57972
C         37.77435        48.78112         0.41738
C         36.58103        48.12613         0.63532
C         37.82606        50.18056         0.06633
C         36.62006        51.03036         0.36718
C         37.68564        52.82361        -1.04847
C         36.52651        52.25328        -0.52451
C         37.62856        54.08826        -1.74181
C         36.36404        54.72194        -1.93219
C         37.40614        56.45979        -3.27149
C         36.27987        55.91809        -2.68508
C         40.21796        14.95908         1.61470
C         40.20767        16.12100         0.64977
C         38.94001        16.94519         0.68039
C         40.25928        19.02807         0.50178
C         38.97652        18.36164         0.54387
C         40.30337        20.48821         0.30167
C         39.01041        21.26435         0.16515
C         40.24750        22.78873        -1.28231
C         39.02358        22.46652        -0.69770
C         40.26065        24.89534        -1.68635
C         38.99797        25.45132        -1.29107
C         40.23451        27.54731        -0.75943
C         39.00086        26.80926        -0.84763
C         40.25465        28.90207        -0.40146
C         39.05260        29.57089        -0.03392
C         40.29134        31.67934         0.38116
C         39.04004        30.95451         0.25839
C         40.28388        33.07173         0.75324
C         39.04467        33.77455         0.83453
C         40.27803        35.88969         1.29276
C         39.05125        35.18461         1.04696
C         40.27783        37.34256         1.46200
C         39.08067        38.08574         1.29578
C         40.28603        40.20937         1.52382
C         39.05436        39.49780         1.39823
C         40.27100        41.63138         1.59142
C         39.06193        42.37060         1.53033
C         40.26727        44.51637         1.22215
C         39.05559        43.80594         1.38576
C         40.26600        45.87361         0.83763
C         39.02880        46.58009         0.76949
C         40.15747        48.50221        -0.31990
C         39.08866        48.09217         0.72335
C         40.20194        49.98535        -0.54485
C         38.97372        50.74812        -0.48309
C         40.11942        52.66836        -1.54669
C         38.97814        52.12412        -1.00085
C         40.17123        54.00324        -2.27054
C         38.80741        54.68670        -2.27667
C         40.59268        57.02873        -2.83203
C         38.64014        55.82273        -3.06772
C         40.60101        58.41294        -2.89869
C         42.64999        14.93620         1.54579
C         41.39753        14.37715         1.95932
C         42.70441        16.21026         0.98655
C         41.48084        16.92402         0.75771
C         42.78396        19.08048         0.70949
C         41.47308        18.31726         0.57475
C         42.78634        20.37574        -0.06176
C         41.56581        21.05211        -0.24041
C         42.73140        23.05022        -1.27349
C         41.50615        22.27801        -0.92444
C         42.68268        24.55479        -1.02774
C         41.48509        25.39512        -1.29700
C         42.82292        27.52149        -0.76432
C         41.51484        26.85130        -1.06179
C         42.78549        28.92093        -0.29424
C         41.53004        29.71553        -0.56692
C         42.76093        31.68911         0.43413
C         41.51771        31.03573         0.16260
C         42.76851        33.08353         0.83838
C         41.50041        33.76994         0.96998
C         42.73522        35.80017         1.73904
C         41.48051        35.15523         1.29915
C         42.71392        37.30350         1.98171
C         41.48394        38.05680         1.67049
C         42.78222        40.17197         1.56017
C         41.51772        39.47419         1.61474
C         42.79846        41.60866         1.46474
C         41.54683        42.33900         1.72585
C         42.78780        44.48808         1.02541
C         41.55103        43.85523         1.49061
C         42.74520        45.83753         0.60041
C         41.49867        46.54245         0.50069
C         42.68335        48.55943        -0.23735
C         41.48071        47.86303         0.00516
C         42.65684        49.92546        -0.66425
C         41.39826        50.59678        -0.84852
C         42.61951        52.74918        -1.24632
C         41.41799        51.89971        -1.60007
C         42.55884        54.17575        -1.35133
C         41.39284        54.84828        -1.81145
C         42.54070        57.02778        -1.40221
C         41.47374        56.27176        -1.99825
C         42.49241        58.44579        -1.41123
C         41.51896        59.13367        -2.11314
C         45.17737        16.12247         0.53318
C         43.97995        16.86371         0.66332
C         45.22878        18.89034         0.07461
C         44.00983        18.24610         0.41628
C         45.23834        20.29539        -0.26617
C         44.00589        20.96632        -0.45196
C         45.28144        23.11292        -0.78893
C         44.02590        22.34860        -0.99131
C         45.26898        24.50561        -0.69207
C         43.98764        25.24531        -0.65848
C         45.22644        27.33837        -0.20438
C         44.04757        26.71968        -0.59254
C         45.16573        28.72588         0.30296
C         43.93661        29.53481         0.13007
C         45.24574        31.61782         0.58165
C         43.97445        30.95818         0.39231
C         45.26168        33.12834         0.53523
C         43.97986        33.76778         1.01099
C         45.24516        35.81947         1.53925
C         44.02811        35.13509         1.43958
C         45.30434        37.25961         1.85555
C         44.01401        38.04305         2.00468
C         45.23785        40.10499         1.33174
C         44.00778        39.46503         1.61315
C         45.17120        41.51223         0.86850
C         43.96629        42.30744         1.17443
C         45.20892        44.42140         0.65793
C         43.99716        43.74095         0.97811
C         45.20431        45.83110         0.38853
C         43.95993        46.51888         0.29015
C         45.15545        48.59810        -0.26958
C         43.93866        47.89245        -0.06756
C         45.11690        49.99624        -0.56132
C         43.86471        50.65344        -0.77289
C         45.05447        52.82252        -0.85072
C         43.82924        52.08685        -0.96956
C         45.01005        54.24894        -0.84558
C         43.76186        54.92135        -1.03873
C         44.90726        57.03853        -0.59897
C         43.72292        56.33493        -0.95685
C         46.37643        16.75188         0.23601
C         47.70649        18.84539        -0.17332
C         46.43947        18.14655         0.02013
C         47.72425        20.25158        -0.38609
C         46.48130        20.97490        -0.50579
C         47.77273        23.09630        -1.02217
C         46.49345        22.36814        -0.73068
C         47.71602        24.54066        -0.60844
C         46.51371        25.22421        -0.49919
C         47.69874        27.37158        -0.01491
C         46.48447        26.64844        -0.18679
C         47.72418        28.76232         0.18190
C         46.46907        29.45159         0.52788
C         47.74593        31.57251         0.79620
C         46.43132        30.92231         0.57283
C         47.77356        33.02489         1.11644
C         46.50390        33.77647         1.09747
C         47.78740        35.85622         1.46752
C         46.51435        35.13009         1.36008
C         47.76168        37.29908         1.44234
C         46.53454        37.99653         1.49131
C         47.73312        40.13895         1.12782
C         46.46558        39.40365         1.32759
C         47.72420        41.56000         0.68946
C         46.40999        42.23307         0.45775
C         47.65007        44.36151         0.29422
C         46.44385        43.70970         0.50984
C         47.72702        45.86163         0.43486
C         46.41283        46.53918         0.17022
C         47.63704        48.64466        -0.32477
C         46.40509        47.91793        -0.12554
C         47.59167        50.04067        -0.55461
C         46.33419        50.72622        -0.62280
C         47.52724        52.88508        -0.71488
C         46.29931        52.14728        -0.73434
C         47.49142        54.30442        -0.66155
C         46.21667        54.98755        -0.65498
C         46.11861        56.39167        -0.48089
C         50.14549        18.85541        -0.04524
C         48.93490        18.16302        -0.05444
C         50.18515        20.24523        -0.17079
C         48.97516        20.96683        -0.38279
C         50.22841        23.11553        -0.39101
C         49.00823        22.38262        -0.53832
C         50.24904        24.53317        -0.47538
C         48.98854        25.31868        -0.76573
C         50.22972        27.38296        -0.27165
C         48.98933        26.59127         0.07541
C         50.13823        28.82974        -0.46886
C         48.92647        29.54429         0.00357
C         50.16603        31.74543         0.07368
C         48.95459        30.90636         0.25489
C         50.21852        33.10427         0.67595
C         49.04561        33.77679         1.03175
C         50.32281        35.92620         1.21747
C         49.00999        35.17368         1.33813
C         50.25098        37.35201         1.77868
C         49.00309        38.03996         1.35085
C         50.23545        40.15155         0.93864
C         49.00370        39.39520         1.08432
C         50.24464        41.43131         0.16185
C         48.91073        42.16254        -0.00778
C         49.81493        44.36990        -0.75947
C         48.80657        43.63773        -0.16086
C         50.00441        45.78136        -0.61466
C         48.90217        46.52248        -0.24912
C         50.06290        48.62891        -0.80969
C         48.89468        47.96164        -0.40261
C         50.04326        50.05410        -0.90591
C         48.81038        50.76100        -0.73356
C         50.00151        52.91879        -0.80392
C         48.78091        52.19134        -0.76263
C         49.93653        54.33597        -0.73736
C         48.72913        55.00297        -0.65747
C         52.66501        20.37862        -0.72330
C         51.50233        20.94334         0.07781
C         52.67386        23.14156        -0.16944
C         51.46566        22.44002        -0.15326
C         52.69300        24.55544        -0.29891
C         51.45311        25.24982        -0.37079
C         52.69294        27.43431        -0.42732
C         51.43121        26.71164        -0.40113
C         52.69054        28.82818        -0.42503
C         51.45595        29.59874        -0.58984
C         52.76080        31.70645         0.09808
C         51.47250        31.07927        -0.31096
C         52.74628        33.06362         0.62164
C         51.50584        33.74159         0.84290
C         52.76059        35.50040         1.91105
C         51.52762        35.02396         1.44772
C         52.78514        37.68653         2.20295
C         51.44274        38.28229         2.05367
C         52.67234        40.38630         1.42136
C         51.39248        39.64239         1.47529
C         52.70057        41.69579         0.73493
C         51.54935        42.15206         0.06915
C         52.76125        44.24785        -0.49891
C         51.70964        43.34271        -0.66570
C         52.64539        45.64497        -1.12496
C         51.38220        46.45248        -0.61911
C         52.57139        48.56843        -1.40845
C         51.24185        47.80334        -1.35551
C         52.53190        50.08365        -1.30714
C         51.25294        50.79326        -1.07173
C         52.50735        52.87910        -0.83954
C         51.25565        52.19928        -0.91963
C         53.82521        21.04502        -0.76257
C         55.20992        23.15346        -0.36698
C         53.96522        22.35975        -0.02122
C         55.20581        24.55992        -0.35317
C         53.94042        25.29191        -0.30833
C         55.20705        27.41487        -0.00967
C         53.92899        26.68302        -0.33868
C         55.23183        28.85446        -0.45976
C         53.94832        29.60021        -0.49487
C         55.23518        31.60910         0.31825
C         53.93911        31.01944        -0.08123
C         55.26061        33.04216         0.74816
C         53.96987        33.75087         0.84358
C         55.25630        35.83410         1.51543
C         54.00113        35.02107         1.45456
C         55.22629        37.37011         1.59362
C         53.95312        38.15531         1.68061
C         55.23061        40.30012         1.11324
C         53.98132        39.62241         1.48943
C         55.16848        41.78133         1.10377
C         53.90642        42.42729         0.66162
C         55.16591        44.49466        -0.01214
C         53.92986        43.73961         0.11370
C         55.11894        45.85007        -0.48220
C         53.88344        46.48792        -0.83945
C         55.05073        48.64893        -0.98990
C         53.84518        47.87024        -1.05984
C         55.02467        50.08288        -1.06668
C         53.78661        50.80522        -1.04433
C         53.71566        52.19731        -0.84510
C         57.63239        23.14872        -0.67390
C         56.43211        22.46825        -0.51844
C         57.68130        24.55837        -0.62768
C         56.45363        25.26969        -0.45835
C         57.68800        27.41105        -0.41678
C         56.47839        26.68920        -0.36716
C         57.69781        28.84259        -0.37814
C         56.51187        29.58126        -0.26415
C         57.73360        31.72764        -0.04953
C         56.50561        30.97151        -0.07576
C         57.72358        33.16285         0.25705
C         56.50984        33.83318         0.64226
C         57.69465        35.96899         0.85446
C         56.48396        35.19547         0.94066
C         57.68144        37.38826         0.92700
C         56.34354        38.08442         0.81213
C         57.66022        40.30584         0.78409
C         56.40378        39.59944         0.98829
C         57.68170        41.70736         0.64065
C         56.45739        42.51028         0.81652
C         57.62205        44.53623        -0.02742
C         56.39806        43.87028         0.24075
C         57.59350        45.91198        -0.38271
C         56.34054        46.57895        -0.56735
C         57.53152        48.71834        -0.90764
C         56.30897        47.98520        -0.83797
C         57.46917        50.12165        -1.06591
C         56.25771        50.78247        -1.11006
C         60.18120        24.60876        -0.75181
C         58.94202        25.28534        -0.64419
C         60.18562        27.39777        -0.32733
C         58.95074        26.69975        -0.48476
C         60.15901        28.87195         0.07839
C         58.98587        29.57452        -0.61817
C         60.19245        31.77086        -0.48095
C         58.92350        31.05461        -0.31018
C         60.19354        33.26769        -0.15665
C         58.92331        33.89052         0.27702
C         60.15657        35.99811         0.69883
C         58.93024        35.27883         0.62727
C         60.13767        37.41479         0.80676
C         58.88698        38.12065         0.83507
C         60.11253        40.26776         0.58477
C         58.89058        39.56707         0.73127
C         60.11858        41.69268         0.35687
C         58.88999        42.40829         0.34805
C         60.08671        44.51096        -0.14880
C         58.87282        43.82312         0.08059
C         60.07270        45.93920        -0.42404
C         58.82720        46.62678        -0.54242
C         60.02820        48.71193        -0.96156
C         58.80463        48.02882        -0.80853
C         61.37571        25.30144        -0.64998
C         61.37910        26.68426        -0.40072
C         61.43633        29.64338        -0.18834
C         61.43656        30.96487        -0.42428
C         61.43514        33.96608         0.20958
C         61.40055        35.25971         0.60600
C         61.35087        38.17294         0.77734
C         61.33911        39.53539         0.65908
C         61.31929        42.41745         0.12486
C         61.30252        43.77475        -0.11101
C         61.26823        46.66832        -0.58271
C         61.24053        48.03526        -0.85048
O         54.67279        29.21914        -1.75720
O         42.59133        36.36703         3.08949
O         44.81432        37.70353         3.17465
O         33.19503        28.48991        -2.37324
O         45.57322        41.64615        -0.58134
O         27.03255        35.81670         1.40421
O         55.30485        31.96998         1.76529
O         47.91573        41.28838         2.10649
O         41.63232        43.27859         2.84129
O         30.53435        36.71708        -1.22335
O         52.75703        36.48208         2.89358
O         45.74089        28.82440         1.65074
O         39.44659        48.52089         1.99420
O         39.78811        21.35476         1.40666
O         47.86170        32.00510         2.21824
O         55.58143        36.57961         2.74538
O         60.17238        32.78008        -1.55027
O         55.89636        42.44051         2.18383
O         49.46256        41.35898        -1.08365
O         37.10438        28.88501         1.34887
O         23.05724        45.11892         3.23775
O         50.71138        31.82034        -1.30942
O         25.12336        32.32696         0.94242
O         43.05151        24.75646         0.39883
O         50.55595        37.79270         3.12307
O         50.66641        29.25662        -1.76714
O         43.50799        22.52990        -2.38785
O         52.62961        49.36544        -2.63112
O         50.71475        43.69631        -1.58889
O         37.20489        37.84908        -0.29231
O         39.74935        56.36607        -3.74242
O         35.26511        36.56425         2.42571
O         40.23141        23.67481        -2.36529
O         33.54347        46.56397         2.78747
O         27.71291        49.83810         2.17549
O         34.04650        21.27840        -2.52435
O         42.29938        27.47504        -2.18846
O         33.14382        41.94095         2.69436
O         31.50149        26.19373        -2.73992
O         53.41101        40.32932         2.67418
O         35.84576        19.56986        -1.98709
H         35.46163        20.07329        -2.74292
O         49.09623        26.16150         1.46418
H         48.82612        26.90587         2.04206
O         25.71362        29.27094        -2.92779
H         26.54900        28.81165        -3.16135
O         29.41079        39.78542        -1.71217
H         30.01286        39.05085        -1.96866
O         55.92334        37.89530        -0.58828
H         56.62805        38.25864        -1.16578
O         32.51582        23.20986        -3.16305
H         32.68871        22.30096        -3.49783
O         29.25814        25.33173         0.71066
H         29.08191        24.40446         0.98254
O         49.04387        25.70176        -2.16795
H         48.85834        24.88241        -2.68769
O         55.21200        27.52083         1.46209
H         55.33391        26.61927         1.82769
O         23.28666        36.45787        -2.74816
H         24.16184        36.91987        -2.83324
O         41.57301        30.07695        -1.99337
H         41.78225        29.23966        -2.48088
O         25.82084        44.34200         3.44412
H         25.06037        44.76347         3.90553
O         59.27399        29.46824        -2.04834
H         58.58493        29.96615        -2.53666
O         36.35163        46.32599        -0.86416
H         36.50576        45.36609        -0.99683
O         30.28975        32.97514         2.06117
H         29.74275        32.17077         2.24392
O         36.84921        51.56938         1.71677
H         35.97078        51.87312         2.05882
O         34.14963        51.56030         2.07785
H         34.05671        50.78333         2.67187
O         50.84876        47.50203        -2.71103
H         51.24141        48.20493        -3.28075
O         25.77625        40.92646         2.57706
H         25.88041        41.69633         3.17878
O         29.01812        30.60995         1.55744
H         28.10718        30.28294         1.72633
O         59.89681        28.91391         1.50373
H         60.59728        28.40480         1.96142
O         32.15453        42.63393        -0.74015
H         31.38497        42.95831        -1.25447
O         37.26990        20.95994         1.79221
H         38.10987        21.08610         2.29556
O         40.22683        15.50581        -0.69929
H         41.04909        14.97303        -0.75576
O         54.12956        22.02734         1.40636
H         54.15535        22.87170         1.90426
O         35.81103        23.23549        -3.04303
H         35.41041        22.46006        -3.49355
O         48.02346        46.10851         1.87242
H         47.26825        45.75462         2.39063
O         40.44821        53.71768        -3.68841
H         40.44166        54.58897        -4.15255
O         47.91530        23.12040        -2.52519
H         47.00969        23.20913        -2.89630
O         41.63785        51.46002        -2.98945
H         41.36740        52.21190        -3.57402
O         31.40871        30.30036        -2.45790
H         31.87178        29.64719        -3.03677
O         26.62328        40.13217        -1.85612
H         27.55694        40.10468        -2.18736
O         45.32704        33.43371        -0.91730
H         45.19770        34.40025        -1.02464
O         50.44795        36.23589        -0.22556
H         50.38891        35.39064        -0.72257
O         51.67250        46.71636         0.77343
H         50.84977        47.00580         1.22341
O         25.66149        37.67376        -2.25589
H         25.89247        38.62911        -2.43289
O         51.76990        20.69850         1.48886
H         52.66501        21.07857         1.68710
O         42.88270        19.45969         2.12418
H         42.89324        18.63266         2.65087
O         52.58321        45.48980        -2.55144
H         51.77856        44.96264        -2.75958
O         39.68477        47.91669        -1.57132
H         40.23502        48.27651        -2.29924
H         22.92180        23.68665        -2.00736
H         20.85374        24.98101        -2.35494
H         20.84773        27.43943        -2.14314
H         20.78081        29.26334        -1.55966
H         20.76305        31.66233        -1.18455
H         20.78217        33.58250        -1.10652
H         20.85044        35.96078        -1.48960
H         20.85941        37.65768        -0.33662
H         20.87077        39.83900         0.74637
H         20.87086        41.50172         1.60059
H         20.93396        43.66184         2.82945
H         20.97639        46.62104         3.00118
H         22.88385        49.68855         0.65804
H         20.83916        48.77562         1.69259
H         24.51544        22.70873        -1.64080
H         24.47992        50.39185        -0.15162
H         26.59932        21.48456        -1.32021
H         26.53679        51.65824        -0.38450
H         30.33523        19.43447        -0.23397
H         28.19723        20.61187        -0.47105
H         30.27361        53.97217        -0.42814
H         28.16964        52.80582        -0.00519
H         31.94707        19.06213         0.88233
H         31.78676        54.61506        -1.33760
H         34.03550        17.89033         1.45332
H         33.80732        55.66266        -2.14620
H         37.68056        15.18601         0.80002
H         35.55464        16.44942         0.64659
H         37.35112        57.36102        -3.89466
H         35.31695        56.41868        -2.84068
H         39.26734        14.50964         1.93512
H         39.90185        58.92965        -3.56810
H         43.57355        14.39190         1.78384
H         41.40777        13.47087         2.58232
H         43.26039        59.01957        -0.87738
H         41.50655        60.23169        -2.11660
H         45.16760        15.03379         0.68027
H         44.88225        58.12852        -0.47170
H         47.28492        16.13870         0.16914
H         47.01618        56.98366        -0.25708
H         51.08046        18.30087         0.11613
H         48.95387        17.07497         0.09126
H         50.85974        54.93028        -0.76181
H         48.73799        56.10078        -0.62078
H         52.55094        19.41689        -1.24663
H         52.52690        53.96745        -0.69878
H         54.68108        20.64739        -1.32789
H         54.63608        52.77545        -0.68713
H         58.55373        22.56342        -0.79158
H         56.44276        21.36982        -0.50004
H         58.39041        50.71530        -1.12533
H         56.26087        51.87562        -1.21083
H         60.21006        23.52259        -0.90890
H         60.04479        49.78833        -1.17552
H         62.33052        24.76430        -0.73352
H         62.34567        27.19035        -0.27267
H         62.40214        29.11756        -0.14128
H         62.38778        31.48411        -0.61413
H         62.39754        33.44834         0.09623
H         62.34655        35.76588         0.84004
H         62.31900        37.65748         0.81561
H         62.29779        40.06789         0.61600
H         62.28697        41.89927         0.12234
H         62.25861        44.28333        -0.29090
H         62.24219        46.17034        -0.49275
H         62.18394        48.58508        -0.97264
