         324
 CSIRO Nanostructure Databank - Neutral Graphene Oxide Data Set
C          1.77241         3.98912        -2.27112
C          0.46617         4.19963        -1.84622
C          1.30797         5.62954        -0.09829
C          0.22516         4.99444        -0.72010
C          1.16195         7.74441         0.86642
C         -0.08627         8.42361         0.80837
C          1.03989        10.58636         0.63952
C         -0.16635         9.76741         0.56116
C          0.99950        12.02082         0.24331
C         -0.14696        12.75434         0.14469
C          1.01513        14.92703         0.08515
C         -0.13329        14.19417         0.03341
C          0.98567        16.43941         0.17312
C          0.03503        17.10460        -0.79593
C          1.16261        19.23080        -0.36127
C          0.09546        18.44146        -0.96618
C          1.12399        20.61459        -0.28637
C         -0.02968        21.36975        -0.67841
C          1.09789        23.48602        -0.14939
C         -0.05852        22.73153        -0.56161
C          1.00593        24.95824        -0.07104
C         -0.11323        25.72653        -0.63426
C          1.21516        27.79227        -0.67320
C         -0.03599        27.07626        -0.78262
C          1.25788        29.22992        -0.82991
C          4.19338         4.14735        -1.88292
C          2.86466         4.59986        -1.60554
C          3.75933         6.18636         0.23290
C          2.62775         5.52540        -0.55019
C          3.65487         7.71827         0.40937
C          2.41232         8.37075         0.66950
C          3.63494        10.55597         0.29098
C          2.38082         9.86141         0.77112
C          3.53666        11.98292        -0.17415
C          2.29993        12.72977         0.25564
C          3.57671        14.96714         0.03767
C          2.30495        14.23088         0.24176
C          3.57174        16.38192         0.16217
C          2.34260        17.11390         0.10365
C          3.58907        19.23567         0.24709
C          2.36463        18.50771         0.03825
C          3.56634        20.64395         0.35067
C          2.23246        21.34476         0.44600
C          3.54503        23.53592         0.31025
C          2.28763        22.83182         0.16525
C          3.59531        24.92913         0.13657
C          2.34994        25.71120         0.07280
C          3.68996        27.70045        -0.66002
C          2.38730        27.08684        -0.42086
C          3.71587        29.23177        -0.84907
C          2.42596        29.92648        -0.78466
C          6.56476         3.97452        -1.24651
C          5.28251         4.63869        -1.17311
C          6.24395         6.45466         0.15628
C          5.11619         5.77215        -0.29943
C          6.12299         7.73401         0.74400
C          4.87753         8.45672         0.64447
C          6.05212        10.61899         1.24135
C          4.87721         9.87540         0.73711
C          6.16385        12.10605         1.18092
C          4.70710        12.86180        -0.61000
C          6.02532        14.91643         0.18828
C          4.78213        14.26038        -0.06089
C          6.03813        16.34025         0.27196
C          4.81451        17.07101         0.21768
C          6.03936        19.16377         0.57572
C          4.82769        18.49892         0.33382
C          5.98405        20.60869         0.88379
C          4.75313        21.37551         0.56401
C          6.01281        23.51972         0.61380
C          4.77332        22.79747         0.53297
C          6.05139        24.88933         0.33349
C          4.84844        25.62862         0.08397
C          6.14310        27.75289        -0.15125
C          4.90790        27.01269        -0.20288
C          6.11156        29.21824        -0.21068
C          4.96764        29.90564        -0.47297
C          8.87108         3.74198        -0.39251
C          7.66987         4.49536        -0.61370
C          8.64499         6.30181         0.78732
C          7.63163         5.96439        -0.25897
C          8.63537         7.68601         1.35532
C          7.32914         8.40171         1.28887
C          8.59015        10.58348         0.89954
C          7.36271         9.89687         1.36020
C          8.45077        11.92493         0.28985
C          7.24570        12.74366         0.60463
C          8.47347        14.87678         0.20319
C          7.26415        14.18436         0.33974
C          8.50765        16.31161         0.29046
C          7.27957        17.03662         0.39222
C          8.52924        19.12977         0.72534
C          7.28256        18.45372         0.58010
C          8.55747        20.55500         1.11568
C          7.25846        21.32745         1.18352
C          8.59447        23.51870         0.88335
C          7.26998        22.82757         1.03864
C          8.62709        24.88206         0.26485
C          7.32853        25.59846         0.09026
C          8.65002        27.76032        -0.08189
C          7.34314        27.06705         0.01439
C          8.64668        29.27964        -0.04516
C          7.33977        30.01349         0.18455
C         11.10492         3.42581         0.54205
C          9.84371         4.14085         0.52376
C         11.33833         6.54410         1.87114
C          9.53768         5.38584         1.23454
C         11.15053         7.87049         1.31730
C          9.89083         8.50002         1.23759
C         11.02656        10.58455         0.43739
C          9.80748         9.88089         0.82933
C         10.99238        11.92280         0.04193
C          9.71724        12.64651        -0.14508
C         10.98877        14.87000         0.06906
C          9.70778        14.17877        -0.34526
C         11.00656        16.27314         0.25771
C          9.74629        17.01686         0.33387
C         10.99426        19.17892         0.38290
C          9.75160        18.43339         0.52553
C         11.05788        20.56095         0.49635
C          9.87147        21.30186         0.96928
C         11.05717        23.44881         0.60476
C          9.86193        22.76304         0.79338
C         11.05874        24.90654         0.58860
C          9.89412        25.63432         0.44508
C         11.06352        27.80219         0.54223
C          9.89986        27.07271         0.32721
C         11.08059        29.25256         0.43048
C          9.89322        29.95548         0.31802
C         13.53375         3.03760         0.66684
C         12.32694         3.65384         1.16843
C         13.72632         6.43997         1.37202
C         12.52687         5.85746         1.87260
C         13.55261         7.71518         0.64615
C         12.31933         8.52095         0.80043
C         13.49569        10.54254        -0.03140
C         12.28552         9.86375         0.38593
C         13.52351        11.92383        -0.20460
C         12.22966        12.61352        -0.30930
C         13.53641        14.78600         0.06916
C         12.22448        14.17244        -0.25501
C         13.53072        16.29908         0.23376
C         12.23170        16.98087         0.17986
C         13.53005        19.18204        -0.09817
C         12.19830        18.42959        -0.02892
C         13.50558        20.61166         0.20439
C         12.30001        21.30788         0.36351
C         13.54028        23.48435         0.44017
C         12.30516        22.74011         0.52527
C         13.58558        24.90795         0.59110
C         12.32020        25.60679         0.87728
C         13.63567        27.86840         1.04511
C         12.30003        27.11549         0.98187
C         13.55802        29.27737         0.50106
C         12.34073        29.94091         0.43056
C         16.04068         3.16842         0.30443
C         14.80415         3.52733         0.93231
C         16.09925         6.24161         0.64930
C         14.92368         5.74596         1.30627
C         16.10400         7.75594         0.56050
C         14.77873         8.31738         0.07257
C         16.02356        10.46920        -0.56681
C         14.72741         9.76237        -0.31573
C         16.01469        11.96370        -0.66189
C         14.74909        12.68362        -0.40065
C         16.03580        14.81901        -0.22552
C         14.78578        14.07218        -0.28042
C         16.02425        16.28427        -0.13872
C         14.80892        17.01095        -0.01751
C         16.03007        19.11890        -0.14716
C         14.80859        18.42207        -0.03983
C         16.07157        20.58693         0.05187
C         14.77813        21.33682         0.28955
C         15.92151        23.53280        -0.22886
C         14.73693        22.79479         0.17254
C         15.99561        24.97202         0.03056
C         14.79024        25.65057         0.41173
C         16.00007        27.77816         0.22253
C         14.81500        27.07984         0.49415
C         15.99792        29.23568         0.18637
C         14.77606        29.94125         0.25753
C         18.41943         3.30683        -0.09040
C         17.16357         3.99501         0.18196
C         18.36385         6.16442        -0.32105
C         17.17425         5.45844         0.24508
C         18.51000         7.63312        -0.18209
C         17.30562         8.39183        -0.07298
C         18.56599        10.48368        -0.02044
C         17.29295         9.75603        -0.30863
C         18.58893        11.95176        -0.33997
C         17.32345        12.70718        -0.52066
C         18.52562        14.86703        -0.04471
C         17.25217        14.14435        -0.21982
C         18.52954        16.31294        -0.31411
C         17.25134        17.00197        -0.30172
C         18.47045        19.17875        -0.62810
C         17.23323        18.41987        -0.33513
C         18.50578        20.64532        -0.43073
C         17.29406        21.32081        -0.29034
C         18.51081        23.51952        -0.38418
C         17.25834        22.76695        -0.46500
C         18.47277        24.93910        -0.32898
C         17.21731        25.65256        -0.13733
C         18.44203        27.80274        -0.20275
C         17.22709        27.08037        -0.04125
C         18.42718        29.23979        -0.18379
C         17.20303        29.92474        -0.02327
C         19.59722         3.92965        -0.32842
C         20.90543         6.11555        -0.59655
C         19.63377         5.37547        -0.60186
C         20.93936         7.47168        -0.58557
C         19.74454         8.28251        -0.43303
C         21.00589        10.45357        -0.47111
C         19.80888         9.71235        -0.39006
C         21.01889        11.84001        -0.36893
C         19.80635        12.60336        -0.33350
C         20.99913        14.85892        -0.64939
C         19.84848        14.08790        -0.19252
C         20.96337        16.22143        -0.66449
C         19.74985        16.96681        -0.47142
C         20.99691        19.22892        -0.43708
C         19.78777        18.43334        -0.69760
C         20.96206        20.59230        -0.41262
C         19.73999        21.35231        -0.47381
C         20.93995        23.55563        -0.40554
C         19.73754        22.79837        -0.39985
C         20.91350        24.93504        -0.41536
C         19.69676        25.66346        -0.37453
C         20.86276        27.87007        -0.52139
C         19.68591        27.11513        -0.36931
C         20.83635        29.27192        -0.51465
C         19.64169        29.95462        -0.34862
O         19.06788        18.81277        -1.92450
O          1.04287         6.36341         1.07606
O         15.23424         9.91483        -1.68618
O          3.38570        10.89249        -1.13804
O         12.76620        18.84850        -1.32495
O          7.91652        23.49163         2.18681
O         12.17401        26.29587         2.19544
O          3.83995        28.32007        -1.98456
O          1.75606        10.41095         1.94876
O         14.96053         4.49967         1.94338
O         12.48069         4.50775         2.28154
O         16.38518        23.16307        -1.58373
O          1.46459        25.48694         1.21605
O          6.42491        20.87805         2.29136
O          8.86484        11.96786        -1.13214
O         15.64260        20.91604         1.45094
O          6.63483        10.30044         2.58663
O          8.06911        24.95794        -1.08088
O          7.82947         7.81193         2.56467
O         16.71586        12.42665        -1.85704
O          9.39851        20.82352         2.28511
O          8.75185        28.56464        -1.31839
O         19.32622        14.48505         1.12623
O         10.27068         5.78330         2.36752
O          2.46415        13.45698         1.51899
O         12.16822        13.44888        -1.51097
O         18.71496         5.74498        -1.69009
O          5.42108        12.51010        -1.53295
O         13.96286         7.49605        -0.79314
O         13.59435        15.37245         1.40099
O          1.87536        21.25063         1.87781
H          1.14597        21.88611         2.04162
O          7.96900         6.70791        -1.47173
H          7.37616         6.39809        -2.18877
O         13.95264        28.06925         2.45556
H         13.54898        27.30864         2.93918
O          7.25030        30.36499         1.57969
H          7.11193        29.54868         2.10248
O         16.17897         8.23385         1.95715
H         17.05940         8.64690         2.10604
O          0.46078        16.71457         1.51432
H          0.54475        17.67907         1.67363
O          9.59874        14.39988        -1.78358
H          9.10229        13.62942        -2.14823
O          3.69395         5.65123         1.59273
H          2.79518         5.85825         1.93844
O         18.58234        10.47096         1.51252
H         19.39075        10.96264         1.78180
O          5.23695        12.78645         1.90503
H          4.62943        12.17362         2.36766
H          1.97759         3.30018        -3.10238
H         -0.36956         3.70583        -2.36025
H         -0.78816         5.12080        -0.31864
H         -0.99788         7.81210         0.84995
H         -1.13458        10.23455         0.33743
H         -1.12828        12.26204         0.19940
H         -1.10417        14.70597        -0.03004
H         -0.76961        16.51731        -1.26238
H         -0.65060        18.94683        -1.59615
H         -0.91615        20.84793        -1.06384
H         -0.97601        23.26893        -0.83420
H         -1.04425        25.20822        -0.90291
H         -0.91709        27.63667        -1.12875
H          0.29923        29.76870        -0.85966
H          4.33394         3.32883        -2.60358
H          2.42196        31.02456        -0.71914
H          6.59127         2.95580        -1.66271
H          4.96511        31.00436        -0.39990
H          8.99609         2.79216        -0.93552
H          7.35460        30.97930        -0.38053
H         11.15264         2.64250        -0.23427
H          9.88895        31.04955         0.43023
H         13.42672         2.28895        -0.13220
H         12.33417        31.02098         0.21695
H         16.14315         2.13314        -0.06072
H         14.76990        31.02198         0.04782
H         18.40835         2.21121         0.01496
H         17.19589        31.02462        -0.05146
H         20.53199         3.35331        -0.39452
H         21.84227         5.53850        -0.60630
H         21.91541         7.97513        -0.62588
H         21.96623         9.93434        -0.59938
H         21.98305        12.36557        -0.37875
H         21.88941        14.33124        -1.01876
H         21.86191        16.77220        -0.97644
H         21.94821        18.71047        -0.25087
H         21.90865        21.12879        -0.25901
H         21.91312        23.04780        -0.42290
H         21.87075        25.47246        -0.43632
H         21.82994        27.36907        -0.65933
H         21.77481        29.82910        -0.64247
H         19.62330        31.05369        -0.34070
