         598
 CSIRO Nanostructure Databank - Neutral Graphene Oxide Data Set
C         23.32395        70.07671        -0.80520
C         23.43125        71.49819        -0.73316
C         22.33793        72.30408        -0.33012
C         23.67889        74.32276        -0.54097
C         22.47084        73.69097        -0.24226
C         25.52197        65.64753        -1.25942
C         25.51445        67.04710        -1.37734
C         24.35878        67.84643        -1.22601
C         25.65395        69.94569        -1.51544
C         24.41965        69.27556        -1.15768
C         25.77613        71.36515        -1.48915
C         24.66637        72.14641        -1.05972
C         26.05619        74.17806        -1.25319
C         24.80299        73.56591        -0.95444
C         27.89425        61.33768        -0.39872
C         27.87739        62.75011        -0.56711
C         26.70139        63.47829        -0.88279
C         27.99341        65.54080        -1.07629
C         26.72983        64.87933        -1.10088
C         28.08883        66.98944        -1.34583
C         26.81399        67.76608        -1.49499
C         27.83950        69.85831        -2.51307
C         26.74681        69.18115        -1.95505
C         28.09555        71.22009        -2.29742
C         27.02542        71.99182        -1.78835
C         28.43586        74.01297        -1.94310
C         27.16555        73.42345        -1.65594
C         30.32383        57.07067         0.19357
C         30.29986        58.48513         0.16907
C         29.10984        59.20616        -0.03453
C         30.29831        61.36671         0.12266
C         29.08586        60.63390        -0.10830
C         30.27497        62.78996         0.06439
C         29.10358        63.47170        -0.37089
C         30.39551        65.58115        -0.44129
C         29.15895        64.86955        -0.63680
C         30.53525        66.93591        -0.93447
C         29.45626        67.51293        -1.63352
C         30.79506        69.55281        -2.06951
C         29.70368        68.70987        -2.32023
C         30.74944        70.97559        -2.51166
C         29.43894        71.80647        -2.57072
C         30.82889        73.90054        -2.40220
C         29.56408        73.27178        -2.32471
C         32.78695        52.67728         0.07440
C         32.72316        54.09858         0.41954
C         31.52211        54.92636         0.26963
C         32.77761        57.08356         0.56627
C         31.51659        56.31499         0.38091
C         32.74470        58.54503         0.38984
C         31.55835        59.21901         0.28486
C         32.71391        61.38184         0.60772
C         31.55051        60.67938         0.32273
C         32.61649        62.81530         0.89965
C         31.44282        63.54098         0.38681
C         32.84457        65.61485         0.13363
C         31.50276        64.91702         0.11588
C         32.76327        67.13213         0.11134
C         31.72581        67.69173        -0.77233
C         33.09025        69.73876        -1.07690
C         31.84837        69.01836        -1.26089
C         33.25491        71.03627        -1.75449
C         32.05531        71.71863        -2.39539
C         33.28255        73.86324        -2.27348
C         32.05792        73.19824        -2.40973
C         35.19751        48.39014         0.21632
C         35.20990        49.80513         0.28242
C         34.01566        50.53500         0.13580
C         35.26223        52.64429         0.30111
C         33.98637        51.95679         0.20407
C         35.28341        54.08497         0.02928
C         34.07460        54.85577         0.41332
C         35.33472        57.09818        -0.02614
C         34.09565        56.35989         0.40766
C         35.32316        58.59918         0.08894
C         34.02744        59.30071         0.31320
C         35.27002        61.53520         0.36298
C         34.04482        60.70187         0.88017
C         35.15349        62.91007         1.05107
C         33.83998        63.56299         1.32303
C         35.07210        65.89656         1.32319
C         33.81783        65.08402         1.16778
C         35.26160        67.24176         0.76369
C         34.03442        67.93720         0.34231
C         35.45312        69.86825        -0.31238
C         34.16765        69.21793        -0.36372
C         35.53986        71.22321        -0.78443
C         34.43086        71.84174        -1.40457
C         35.69344        73.90040        -1.71529
C         34.47761        73.20514        -1.83525
C         37.72075        44.01626         0.24473
C         37.65630        45.47411         0.16153
C         36.39600        46.23335         0.26294
C         37.59632        48.34770         0.82729
C         36.37550        47.61932         0.37866
C         37.64750        49.82191         0.74044
C         36.46655        50.51859         0.48352
C         37.73125        52.67464         0.56854
C         36.47404        51.95708         0.40641
C         37.77737        54.07323         0.47275
C         36.62686        54.84046         0.03516
C         37.79675        57.10806         0.61469
C         36.64281        56.35939         0.05163
C         37.81675        58.47940         0.71155
C         36.68833        59.32141         0.12139
C         37.84279        61.33624         0.93473
C         36.61368        60.77307         0.61837
C         38.09438        62.77004         0.88678
C         36.19491        63.76453         0.98492
C         37.66848        65.76901         1.68770
C         36.31842        65.11349         1.57624
C         37.74337        67.17026         1.16797
C         36.52155        67.83918         0.71394
C         37.85803        69.88259         0.23257
C         36.60427        69.20520         0.20343
C         37.89717        71.27088        -0.11547
C         36.76618        71.94098        -0.62636
C         38.07676        73.96082        -1.20709
C         36.84940        73.29449        -1.15157
C         40.19815        39.74680         0.22442
C         40.12965        41.15361         0.37731
C         38.94996        41.89755         0.25402
C         40.19139        44.04842         0.54276
C         38.92983        43.32799         0.33798
C         40.19312        45.45317         0.69166
C         38.96577        46.21124         0.41730
C         40.16215        48.36402         1.03873
C         38.89299        47.61057         0.93354
C         40.11043        49.76217         1.16945
C         38.89377        50.50625         0.96974
C         40.17525        52.63477         1.05841
C         38.92336        51.93165         0.91070
C         40.26690        54.12004         0.77784
C         38.94569        54.81817         1.00928
C         40.19427        57.02915         1.42289
C         38.93219        56.31521         1.13456
C         40.21820        58.40871         1.53308
C         39.00699        59.16483         1.21092
C         40.17609        61.24744         1.90708
C         39.00026        60.54310         1.32667
C         40.19343        62.75420         2.08452
C         39.02844        63.49034         1.54934
C         40.26067        65.65871         1.50390
C         38.98952        64.96899         1.93125
C         40.25140        67.03160         1.20854
C         38.99663        67.76732         0.98239
C         40.31861        69.81294         0.54375
C         39.06904        69.16426         0.58547
C         40.38010        71.28720         0.42673
C         39.12329        72.03695         0.13611
C         40.56706        73.95572        -0.86113
C         39.23841        73.46651        -0.49247
C         42.76746        35.58151        -0.49708
C         42.66200        36.97645        -0.49787
C         41.46525        37.64348        -0.20248
C         42.64426        39.78995        -0.06500
C         41.42410        39.05635         0.02929
C         42.71660        41.11750         0.50320
C         41.36495        41.87213         0.74022
C         42.64695        44.02740         0.81164
C         41.40279        43.33295         0.71592
C         42.63810        45.45343         0.92156
C         41.38718        46.17925         0.97432
C         42.62926        48.33668         1.26303
C         41.36495        47.60089         1.10832
C         42.60553        49.80992         1.15385
C         41.35373        50.49611         1.63224
C         42.62329        52.65777         1.27024
C         41.35447        51.96095         1.28109
C         42.66551        54.10327         1.49020
C         41.43553        54.78995         1.45500
C         42.65489        56.94383         2.11238
C         41.35122        56.20924         1.82247
C         42.67002        58.40777         1.96605
C         41.46502        59.11650         1.82851
C         42.63908        61.29469         2.14108
C         41.47649        60.55851         1.90556
C         42.67342        62.75113         2.11569
C         41.47454        63.49131         2.00484
C         42.71804        65.59325         1.67491
C         41.46888        64.90388         1.71374
C         42.72958        66.99873         1.32497
C         41.51161        67.70357         1.05433
C         42.80435        69.72610         0.43396
C         41.55077        69.09308         0.70480
C         42.89507        71.08577        -0.02622
C         41.71170        71.95450         0.09669
C         42.99030        73.74639        -1.07814
C         41.73026        73.25581        -0.61791
C         45.26697        32.83319        -1.00003
C         44.04178        33.50203        -0.83103
C         45.20980        35.66633        -0.93037
C         43.98568        34.90547        -0.79966
C         45.17867        37.07015        -0.89210
C         43.83130        37.74239        -1.13048
C         45.13868        39.95830        -0.56592
C         43.81200        39.22879        -0.75936
C         45.13888        41.24864         0.14254
C         43.95811        41.91082         0.44556
C         45.09615        44.08591         0.55329
C         43.90678        43.33327         0.70621
C         45.05358        45.49594         0.49855
C         43.85858        46.16107         0.77900
C         45.07028        48.37071         0.43677
C         43.92277        47.61699         0.98370
C         44.91525        49.81598         0.25639
C         43.73590        50.50931         0.84057
C         45.09480        52.61658         1.04156
C         43.77977        51.94467         1.03258
C         45.18545        54.06326         1.44396
C         43.90476        54.75495         1.70084
C         45.24305        56.95179         1.97101
C         43.94772        56.18168         2.05351
C         45.14881        58.43598         1.89928
C         43.92453        59.09730         2.04901
C         45.22205        61.29758         2.40005
C         43.89279        60.54401         2.34500
C         45.19898        62.77669         2.23468
C         43.93151        63.46109         2.10335
C         45.18596        65.60357         2.06071
C         43.91755        64.87053         1.93846
C         45.21492        67.07590         1.61116
C         43.95966        67.68295         1.16245
C         45.27891        69.55027         0.24974
C         44.01443        68.98706         0.61932
C         45.28715        70.79232        -0.50863
C         44.08196        71.62037        -0.52143
C         45.43524        73.60533        -1.24281
C         44.16627        72.99645        -0.97576
C         46.45395        33.54108        -1.08947
C         47.66395        35.69581        -1.08238
C         46.46373        34.96694        -1.02902
C         47.66486        37.10517        -0.97189
C         46.40149        37.80274        -0.86938
C         47.64139        39.89485        -0.51251
C         46.41805        39.20804        -0.65988
C         47.67012        41.26986        -0.11872
C         46.43347        41.87987         0.37701
C         47.62492        44.11537         0.16143
C         46.40385        43.41463         0.54185
C         47.49598        45.51772        -0.27520
C         46.20787        46.25177        -0.04729
C         47.38824        48.48650        -0.41788
C         46.21287        47.73826        -0.02643
C         47.41392        49.89226        -0.38399
C         46.12724        50.60069        -0.18785
C         47.34684        52.86976        -0.15443
C         46.12129        52.07567         0.09722
C         47.46291        54.25547         0.40001
C         46.37897        54.85601         1.03643
C         47.55912        57.07538         0.84452
C         46.57265        56.24221         1.63553
C         47.47085        58.54407         0.94874
C         46.35891        59.18381         1.71315
C         47.70436        61.25030         1.95405
C         46.40473        60.54832         1.93470
C         47.70552        62.74333         2.24380
C         46.41508        63.46280         2.18710
C         47.66742        65.60180         1.96425
C         46.46462        64.88507         2.04265
C         47.69172        66.96916         1.54489
C         46.49863        67.63148         1.17809
C         47.77322        69.55020         0.27263
C         46.50400        68.88976         0.50586
C         47.80710        70.93782         0.00173
C         46.66506        71.53857        -0.65388
C         47.90283        73.65842        -1.02970
C         46.65404        72.98522        -0.96782
C         48.88066        37.83484        -0.95100
C         50.11292        39.97651        -0.66712
C         48.90140        39.22125        -0.71933
C         50.12601        41.35578        -0.40904
C         48.86566        42.00291        -0.09721
C         50.09308        44.19972         0.03654
C         48.82593        43.43455         0.04651
C         50.03848        45.70089        -0.15903
C         48.73751        46.29826        -0.55589
C         49.93138        48.55086        -0.64903
C         48.66329        47.79768        -0.70487
C         49.87525        49.97153        -0.71192
C         48.61777        50.63461        -0.61936
C         49.80993        52.90166        -0.87743
C         48.54680        52.12798        -0.69168
C         49.88168        54.28027        -0.27737
C         48.64130        55.00540         0.10235
C         49.85577        57.19166        -0.18086
C         48.66409        56.42197         0.29164
C         49.86953        58.68420        -0.00401
C         48.67833        59.38664         0.57881
C         50.08580        61.35556         1.27913
C         48.88988        60.68715         1.27044
C         50.20115        62.68665         1.94959
C         48.95621        63.46807         2.03391
C         50.24402        65.66858         2.40141
C         48.95589        64.90837         2.24430
C         50.17456        67.10798         1.94473
C         48.96286        67.59129         1.26659
C         50.07257        70.30746         2.20252
C         48.96459        68.76752         0.51172
C         50.03904        71.51568         1.27853
C         48.90276        71.87610         0.36459
C         50.26813        73.86456        -0.38139
C         49.07752        73.11311        -0.47454
C         51.33521        42.12952        -0.46247
C         52.52720        44.32536        -0.40364
C         51.36339        43.51813        -0.27339
C         52.50327        45.73918        -0.48495
C         51.25060        46.45146        -0.51589
C         52.41517        48.58679        -1.09972
C         51.16496        47.83764        -0.71002
C         52.34713        50.05521        -0.76283
C         51.14314        50.70575        -0.76099
C         52.37547        52.94039        -1.00860
C         51.10514        52.15204        -1.21985
C         52.33670        54.31171        -1.03565
C         51.15794        55.02771        -0.50196
C         52.32542        57.19689        -0.56466
C         51.16266        56.50151        -0.41013
C         52.41666        58.59702        -0.08212
C         51.17663        59.42572         0.00683
C         52.63631        61.36667         0.85521
C         51.29235        60.79326         0.62050
C         52.84131        62.63768         1.65470
C         51.54334        63.37290         2.09913
C         52.84429        65.63188         1.97411
C         51.63348        64.88923         2.55207
C         53.06009        66.91281         2.37655
C         51.11130        68.00058         2.39004
C         52.50534        69.96373         1.76786
C         51.28938        69.42714         2.09659
C         52.54069        71.45472         1.56187
C         51.39320        71.95605         0.71479
C         52.63237        74.11474         0.33850
C         51.44058        73.39944         0.27813
C         53.70992        46.50797        -0.54749
C         54.89736        48.64869        -0.77118
C         53.70369        47.89188        -0.71935
C         54.90311        50.05521        -0.86094
C         53.63626        50.81006        -0.51819
C         54.82794        52.89716        -1.21941
C         53.63566        52.23071        -1.03499
C         54.82066        54.33302        -1.58454
C         53.53566        55.08934        -1.40527
C         54.86405        57.28287        -1.06186
C         53.55869        56.56656        -1.11270
C         54.87605        58.63792        -0.73073
C         53.72749        59.31027        -0.07517
C         54.94331        61.50768         0.02291
C         53.74603        60.77311         0.23933
C         55.03866        62.87699         0.43530
C         53.93817        63.49607         1.04404
C         55.28862        65.67004         1.21089
C         54.04764        64.87369         1.53589
C         55.24627        67.15002         1.20234
C         54.18008        67.85887         2.02397
C         54.92153        70.02956         0.93752
C         53.67892        69.14330         1.21845
C         55.07140        71.43673         1.42488
C         53.81158        72.21500         1.50846
C         55.05248        74.23819         0.94551
C         53.85170        73.57944         0.89570
C         56.08929        50.78511        -1.02579
C         57.30663        52.94012        -1.16245
C         56.10508        52.20807        -1.13808
C         57.36487        54.36094        -1.24721
C         56.11289        55.10361        -1.54816
C         57.33082        57.22231        -1.26952
C         56.09357        56.57566        -1.33302
C         57.37231        58.67926        -1.35786
C         56.02440        59.44284        -1.09136
C         57.38037        61.59351        -0.73726
C         56.04224        60.90111        -0.74583
C         57.46750        62.96204        -0.20152
C         56.29313        63.60476         0.22315
C         57.47030        65.73082         0.01749
C         56.35871        65.00106         0.45045
C         57.34403        67.18619        -0.13108
C         56.18557        67.84595         0.51598
C         57.47778        70.00167         0.63481
C         56.15000        69.32879         0.50071
C         57.53865        71.42094         1.09380
C         56.25566        72.10765         1.39310
C         57.55096        74.28237         1.36117
C         56.24118        73.60530         1.66990
C         58.55456        55.07385        -1.11942
C         59.79632        57.22263        -1.14762
C         58.59076        56.50868        -1.18377
C         59.84955        58.65803        -1.06890
C         58.63435        59.37118        -1.09322
C         59.95156        61.51559        -0.58824
C         58.61743        60.76930        -0.69215
C         59.91311        62.98190        -0.66353
C         58.69183        63.66809        -0.37710
C         59.88053        65.83587        -0.61743
C         58.67563        65.09097        -0.36022
C         59.88786        67.25951        -0.55713
C         58.58888        67.96762        -0.46424
C         59.87024        70.19143        -0.22658
C         58.58979        69.44319        -0.19927
C         59.92014        71.56067         0.35518
C         58.76015        72.20209         0.79355
C         59.97560        74.33458         0.88533
C         58.74525        73.62747         1.03079
C         61.09548        59.38256        -1.06713
C         62.33661        61.55957        -1.20889
C         61.16470        60.77875        -0.98157
C         62.32783        62.96436        -1.14684
C         61.09654        63.68971        -0.90797
C         62.31198        65.84669        -1.01178
C         61.09622        65.12703        -0.85846
C         62.32966        67.26876        -0.82289
C         61.10054        67.98309        -0.59959
C         62.31041        70.13098        -0.36877
C         61.12633        69.43166        -0.42818
C         62.34637        71.57478        -0.13377
C         61.15250        72.26390         0.25949
C         62.41711        74.35974         0.44770
C         61.17986        73.67303         0.54745
C         63.51938        63.73867        -1.33931
C         64.80897        65.86899        -1.55512
C         63.52382        65.12017        -1.27293
C         64.79336        67.33293        -1.15920
C         63.57228        67.96385        -0.80698
C         64.85594        70.16280        -0.58900
C         63.58188        69.38548        -0.42889
C         64.73004        71.63345        -0.92167
C         63.54271        72.29056        -0.26623
C         64.83722        74.38357        -0.04131
C         63.59707        73.69440         0.04275
C         65.98635        68.05375        -1.27722
C         67.20910        70.22087        -1.28731
C         66.06216        69.46454        -1.09024
C         67.23676        71.63829        -0.99305
C         66.03958        72.33949        -0.71378
C         67.30757        74.38646        -0.31562
C         66.05457        73.71423        -0.36208
C         68.46104        72.34586        -0.94613
C         68.48346        73.70434        -0.61290
O         36.82857        65.46382         2.88691
O         56.53352        59.20125        -2.42894
O         46.53213        45.67540        -1.37195
O         45.16520        66.69831         3.02640
O         41.17850        71.94378         1.45924
O         33.05446        71.05725        -3.22863
O         50.84408        54.38809         0.83243
O         52.98860        72.19278         2.74041
O         57.84010        70.27954         2.01450
O         34.55277        59.16021        -1.04773
O         57.62365        67.61489        -1.51307
O         49.02595        72.43201         1.75720
O         52.13018        67.51149         3.23178
O         32.94026        67.87215         1.34026
O         46.23217        52.85051        -1.13472
O         28.74852        69.10236        -3.26003
O         30.09550        71.29973        -3.77125
O         55.51429        54.65951        -2.82399
O         44.75816        56.46352         3.27147
O         50.11659        45.13386         1.18510
O         41.80147        56.48676         3.20197
O         32.97472        63.07324         2.38079
O         27.52157        67.75636        -0.17831
O         45.56461        52.94902         2.38748
O         33.64732        56.80624         1.72707
O         49.57664        58.10105        -1.30835
O         48.71145        46.87433        -1.88182
O         51.12335        60.58984        -0.86531
O         38.64260        55.40042         2.30703
O         46.57654        42.51466         1.68063
O         35.98251        54.37766        -1.20154
O         43.57954        37.55287        -2.49714
O         38.50018        46.04087        -0.95260
O         44.36455        40.07362        -1.81479
O         37.20637        63.47925         0.06289
O         50.97513        62.62116         3.21945
O         36.06469        56.78885        -1.23635
O         47.55017        59.30799        -0.33583
O         53.28057        56.04998        -2.47520
O         39.93445        61.89372         3.22688
O         49.46980        65.39878         3.60994
O         34.04539        65.80412         2.38924
O         55.27913        69.95156        -0.50786
O         42.08092        41.23918         1.82747
O         33.52520        54.36042         1.64326
O         48.87746        52.77042        -1.99037
O         38.05918        47.79276         2.12718
O         47.91003        61.74387         3.32222
O         46.08080        70.74299        -1.72995
O         43.52175        47.93550         2.37048
O         53.23711        58.59494         1.14096
O         45.10734        50.22083        -1.16009
O         58.93540        70.20432        -1.39346
O         44.57739        60.83463         3.61874
O         49.19181        70.10155         3.01290
O         55.14165        65.05613         2.54007
O         64.45595        69.74195         0.73576
O         38.96196        73.22240         0.93640
O         56.53813        61.64044        -1.92802
O         59.29074        60.97845         0.60413
O         51.91234        64.83379         3.95539
H         51.05428        64.65222         4.40903
O         53.47296        62.22303         2.90979
H         53.36894        62.96040         3.55269
O         35.12273        61.73630        -1.05260
H         35.87949        62.28852        -1.34723
O         53.17638        68.67474        -0.05231
H         53.87152        68.89098        -0.72968
O         51.12721        51.97485        -2.67331
H         50.20294        52.12149        -2.99648
O         34.19422        60.57240         2.31141
H         33.80827        61.38131         2.73179
O         41.35912        50.40936         3.09489
H         40.52061        50.79694         3.42334
O         54.78021        68.32657         3.24302
H         54.13008        68.20916         3.96921
O         47.23913        56.00832         2.91625
H         46.53003        55.77121         3.56156
O         64.45946        71.65535        -2.37022
H         64.44346        72.59352        -2.65528
O         53.67676        50.94602         0.95122
H         54.53373        51.35966         1.18932
O         52.44294        48.57468        -2.57401
H         51.68050        49.10451        -2.89388
O         65.92843        65.20056        -0.96006
H         65.83297        65.24997         0.01311
O         56.01107        73.79941         3.09934
H         55.12570        73.43498         3.31710
O         40.49010        54.27369        -0.66806
H         41.23273        53.68690        -0.92592
O         50.11473        69.11417        -0.13259
H         49.98758        69.90826        -0.69806
O         33.48441        65.24265        -1.13694
H         32.84316        65.39884        -1.86310
O         37.07540        59.49650        -1.27189
H         36.24107        59.67068        -1.77059
O         39.17921        64.93441         3.37258
H         38.29691        64.80345         3.79178
O         51.53696        71.21331        -0.55100
H         52.10015        70.41148        -0.41141
H         23.76500        75.41535        -0.45405
H         26.14820        75.27114        -1.16611
H         28.55048        75.09841        -1.79839
H         30.86534        74.99529        -2.28970
H         33.30765        74.95783        -2.38323
H         35.76055        74.93936        -2.06944
H         38.17360        74.86995        -1.81913
H         40.61561        74.86680        -1.47679
H         43.03537        74.76646        -1.48701
H         45.43798        74.66566        -1.53779
H         47.93336        74.67643        -1.44731
H         50.28790        74.86396        -0.84319
H         52.66047        75.13660        -0.06994
H         55.14884        75.25831         0.54485
H         57.58521        75.36980         1.52973
H         59.99176        75.41967         1.06462
H         62.45814        75.43399         0.68081
H         64.86879        75.45395         0.20991
H         67.33922        75.44976        -0.03789
H         22.36232        69.60478        -0.55264
H         21.37979        71.82708        -0.07860
H         21.60990        74.29587         0.07549
H         24.56072        65.11964        -1.16034
H         23.38939        67.35314        -1.05453
H         26.96220        60.77129        -0.54446
H         25.74088        62.94507        -0.94326
H         29.37675        56.52545         0.06298
H         28.16667        58.65494        -0.16774
H         31.85859        52.14564        -0.18031
H         30.58328        54.41871         0.00048
H         34.24995        47.87815        -0.00999
H         33.06957        49.98933         0.00241
H         36.77910        43.44632         0.23451
H         35.45085        45.69188         0.10263
H         39.26115        39.18096         0.11294
H         38.00491        41.37379         0.04521
H         41.92511        34.98238        -0.11162
H         40.52343        37.07399        -0.16365
H         45.27997        31.73531        -1.04459
H         43.11273        32.92187        -0.73405
H         47.40780        33.00674        -1.20820
H         48.62065        35.16030        -1.17197
H         49.82882        37.29327        -1.08678
H         51.06367        39.45700        -0.86093
H         52.27223        41.60741        -0.71010
H         53.50023        43.82037        -0.50471
H         54.67050        45.99098        -0.39732
H         55.86186        48.11538        -0.75809
H         57.04198        50.24069        -1.11879
H         58.25435        52.39041        -1.05255
H         59.49694        54.52908        -0.95638
H         60.74263        56.66215        -1.11838
H         62.02068        58.81290        -1.24278
H         63.28204        61.04444        -1.43721
H         64.46702        63.21449        -1.53413
H         64.98220        65.82596        -2.66857
H         66.89378        67.51199        -1.58408
H         68.14330        69.73006        -1.59941
H         69.40062        71.81786        -1.16335
H         69.44432        74.23661        -0.57689
