         420
 CSIRO Nanostructure Databank - Neutral Graphene Oxide Data Set
C         28.47007        27.31227        -2.05384
C         28.23618        28.69677        -1.82626
C         27.14573        29.39591        -2.41850
C         27.77716        31.47204        -1.32323
C         26.97131        30.76396        -2.24774
C         27.87628        32.98678        -1.34872
C         26.64848        33.80778        -1.25057
C         27.85897        35.93976        -0.85668
C         26.66502        35.14984        -0.98603
C         27.86793        37.32156        -0.60947
C         26.67669        38.08013        -0.36779
C         27.86628        40.23323        -0.24860
C         26.69121        39.44572        -0.15416
C         27.88495        41.63037        -0.02912
C         26.67784        42.37051         0.21417
C         27.91119        44.47133         0.34293
C         26.68628        43.72994         0.37176
C         27.92570        45.87390         0.51469
C         30.53807        27.40089        -0.72761
C         29.55042        26.68935        -1.46173
C         30.39311        28.81000        -0.52608
C         29.13192        29.39869        -0.96470
C         30.49109        31.83024        -0.14063
C         28.71741        30.70720        -0.62548
C         30.42971        33.11543        -0.64896
C         29.17474        33.74753        -1.14698
C         30.31393        35.88570        -0.34599
C         29.19044        35.29247        -1.20001
C         30.33624        37.39142        -0.49867
C         29.13635        38.05664        -0.57392
C         30.39188        40.24473        -0.33481
C         29.11466        39.55709        -0.76768
C         30.37195        41.66556        -0.15521
C         29.13408        42.35859        -0.04083
C         30.36878        44.51071         0.18862
C         29.13995        43.77609         0.15807
C         30.36411        45.92725         0.36652
C         29.11731        46.58133         0.51792
C         32.92324        24.60765         0.21224
C         31.78532        25.26707        -0.21676
C         32.90391        27.39759         0.04316
C         31.73925        26.68486        -0.28793
C         32.84683        28.88609         0.24622
C         31.55413        29.58109        -0.14636
C         32.90143        31.70319        -0.34329
C         31.64925        30.99787        -0.17345
C         32.89347        33.11619        -0.52916
C         31.66893        33.83016        -0.68970
C         32.84772        35.95671        -0.53862
C         31.64616        35.23834        -0.64047
C         32.80793        37.38983        -0.38791
C         31.60622        38.08943        -0.41297
C         32.84952        40.25170        -0.20084
C         31.59543        39.54203        -0.30068
C         32.84213        41.68231        -0.12383
C         31.60699        42.38731        -0.05765
C         32.84276        44.52310         0.13650
C         31.60715        43.80796         0.07688
C         32.84742        45.96430         0.27263
C         31.62164        46.65615         0.39468
C         32.84417        48.77395         0.58572
C         31.65883        48.07605         0.54539
C         35.36632        23.27867         1.23612
C         35.29965        24.65193         1.02166
C         34.11725        25.31018         0.51002
C         35.36765        27.45503         0.44832
C         34.11929        26.72621         0.35274
C         35.41489        28.83225        -0.06625
C         34.10123        29.55532        -0.29211
C         35.36860        31.70692        -0.40863
C         34.13622        31.01884        -0.33764
C         35.36258        33.13040        -0.50972
C         34.12012        33.83936        -0.56330
C         35.33842        35.98232        -0.57882
C         34.09788        35.25805        -0.57068
C         35.34122        37.38490        -0.46254
C         34.08777        38.07638         0.00843
C         35.30532        40.24953        -0.31167
C         34.07195        39.55509        -0.23221
C         35.31243        41.67140        -0.21146
C         34.07467        42.39398        -0.05731
C         35.32170        44.54277         0.21228
C         34.05603        43.80535         0.09510
C         35.32470        46.01544         0.11308
C         34.09202        46.69713         0.27025
C         35.35498        48.81555         0.51165
C         34.10038        48.11527         0.45269
C         35.43518        50.21867         0.84690
C         37.79195        23.28559         1.64383
C         36.57387        22.61919         1.54037
C         37.79645        24.75239         1.71023
C         36.46637        25.47311         1.38334
C         37.80493        27.56192         0.87765
C         36.54371        26.85952         0.88748
C         37.83266        28.95414         0.53356
C         36.63338        29.62394         0.11322
C         37.81348        31.77791        -0.07460
C         36.61645        31.01730        -0.16090
C         37.82354        33.15488        -0.36551
C         36.58645        33.84946        -0.54979
C         37.80561        35.98793        -0.70197
C         36.57922        35.27219        -0.64150
C         37.79013        37.40879        -0.75295
C         36.54915        38.10483        -0.57738
C         37.75830        40.24591        -0.63065
C         36.53999        39.53859        -0.49202
C         37.75311        41.67065        -0.53854
C         36.54725        42.35226        -0.29900
C         37.75198        44.56820        -0.59751
C         36.59566        43.79843        -0.01722
C         37.80666        45.99423        -0.11462
C         36.55473        46.71667         0.03895
C         37.83217        48.87324         0.18149
C         36.55664        48.12506         0.24803
C         37.89413        50.26179         0.70242
C         36.62478        50.88284         0.97560
C         40.32771        20.51693         1.88604
C         39.12233        21.17794         1.75233
C         40.26825        23.34421         1.79046
C         39.05943        22.59420         1.71184
C         40.27107        24.79499         1.67603
C         39.06079        25.49359         1.54557
C         40.24725        27.63430         1.18737
C         39.03015        26.90906         1.23509
C         40.27026        29.00752         0.84296
C         39.05468        29.67239         0.56891
C         40.32546        31.82378         0.15418
C         39.03052        31.17649         0.56751
C         40.31047        33.19368        -0.24272
C         39.06173        33.88512        -0.42764
C         40.28460        35.99973        -0.83085
C         39.05668        35.27919        -0.65830
C         40.26884        37.41356        -1.02201
C         39.01388        38.13193        -0.89972
C         40.20739        40.29289        -0.99331
C         38.99075        39.54505        -0.85432
C         40.22052        41.66238        -0.80146
C         39.00290        42.39828        -0.59286
C         40.27283        44.48566        -0.27414
C         39.03469        43.79205        -0.48398
C         40.27000        45.85840         0.09804
C         39.03217        46.60419         0.07388
C         40.37931        48.68639         0.60434
C         39.12402        48.07062         0.13959
C         40.43837        50.20343         0.56519
C         39.12025        50.89677         0.88033
C         40.38606        52.85256         1.67002
C         39.20368        52.26891         1.31211
C         42.80230        20.55060         2.05893
C         41.53321        21.24523         2.01326
C         42.72992        23.42190         2.18873
C         41.49084        22.65563         1.97693
C         42.74495        24.85466         1.82801
C         41.52516        25.50633         1.65952
C         42.78245        27.65670         1.26619
C         41.50181        27.01075         1.73861
C         42.76889        29.03155         0.90746
C         41.53113        29.73121         0.74380
C         42.79441        31.80235         0.25899
C         41.53577        31.10811         0.37078
C         42.75890        33.26327         0.01814
C         41.51850        33.92301        -0.39579
C         42.74648        35.98170        -1.16489
C         41.53260        35.30108        -0.78246
C         42.70376        37.39542        -1.44833
C         41.47950        38.09975        -1.28056
C         42.71240        40.29498        -1.09324
C         41.44048        39.59948        -1.52424
C         42.72564        41.65553        -0.82681
C         41.47726        42.45360        -1.06567
C         42.69212        44.40590         0.04097
C         41.49542        43.79834        -0.39219
C         42.67238        45.72152         0.57973
C         41.47719        46.47552         0.52063
C         42.79982        48.50232         1.17496
C         41.48809        47.90506         0.80869
C         42.83265        49.96465         1.47455
C         41.59495        50.76201         1.36197
C         42.84734        52.69758         2.20656
C         41.60464        52.08030         1.75039
C         43.98576        21.20671         2.11797
C         45.28759        23.42149         2.01185
C         44.04047        22.66952         2.29657
C         45.24466        24.82885         1.75432
C         44.00327        25.54136         1.69183
C         45.24328        27.61180         1.07881
C         43.99950        26.94237         1.36206
C         45.23740        28.99580         0.75567
C         44.01338        29.71736         0.68938
C         45.31666        31.88408         0.45037
C         44.00013        31.12643         0.41174
C         45.28362        33.17493        -0.35261
C         44.05149        33.97896        -0.33875
C         45.09576        35.49735        -1.93228
C         43.96934        35.19832        -1.16978
C         45.06753        37.69094        -2.30224
C         43.90803        38.20184        -1.71499
C         45.12970        40.34799        -1.32018
C         43.93625        39.59843        -1.31150
C         45.17635        41.68656        -0.84710
C         43.94853        42.35481        -0.56422
C         45.18368        44.34131         0.22003
C         43.94990        43.69397        -0.09194
C         45.19478        45.63783         0.82329
C         43.88184        46.13589         1.40503
C         45.20503        48.35583         1.82838
C         43.85564        47.63684         1.89030
C         45.22015        49.74170         2.11450
C         43.91581        50.46607         2.42995
C         43.96447        51.97889         2.42890
C         47.71185        23.43119         1.82031
C         46.50942        22.75231         2.03009
C         47.72403        24.80437         1.55612
C         46.48167        25.51585         1.49320
C         47.70704        27.54359         0.74578
C         46.47655        26.89523         1.13770
C         47.68840        28.85215         0.26301
C         46.47769        29.63738         0.34694
C         47.67200        31.61615        -0.52855
C         46.47757        30.99607         0.05907
C         47.73330        33.10407        -0.60508
C         46.42246        33.73958        -0.85219
C         47.58715        35.48237        -2.14556
C         46.38760        34.92607        -1.67481
C         47.56795        37.72799        -2.49372
C         46.33391        38.35184        -2.26084
C         47.68222        40.43967        -1.66001
C         46.34015        39.76449        -1.89242
C         47.66806        41.71711        -0.92288
C         46.42178        42.36695        -0.64917
C         47.65176        44.30207         0.26576
C         46.41673        43.66963        -0.06848
C         47.64166        45.57531         0.88039
C         46.41365        46.26670         1.13787
C         47.64924        48.37173         1.71536
C         46.42152        47.66080         1.60659
C         47.63934        49.74808         1.97022
C         46.43983        50.42748         2.15232
C         50.22884        24.87135         1.58581
C         48.98110        25.50617         1.33427
C         50.21971        27.50931         0.62921
C         48.97228        26.83513         0.87411
C         50.22197        28.82855         0.10199
C         48.92627        29.34100        -0.47458
C         50.21649        31.59411        -0.77264
C         48.92874        30.84100        -0.74063
C         50.20179        32.93368        -1.19674
C         48.97399        33.72559        -1.13523
C         50.04765        35.85929        -1.92412
C         48.90348        35.06367        -1.77586
C         50.02994        37.36701        -1.62471
C         48.81502        38.23683        -2.02315
C         50.12039        40.20910        -1.25477
C         48.87662        39.58117        -1.62478
C         50.13060        41.59997        -0.88327
C         48.88927        42.31945        -0.62259
C         50.12485        44.30088         0.14308
C         48.90165        43.64012        -0.04214
C         50.18656        45.56093         0.79829
C         48.93067        46.14712         1.29278
C         50.20507        48.35023         1.43100
C         48.94996        47.65947         1.67906
C         51.42510        25.52764         1.39024
C         52.70504        27.55309         0.66133
C         51.46085        26.85960         0.90307
C         52.68434        28.89992         0.22311
C         51.42510        29.53508        -0.07572
C         52.65434        31.69603        -0.39354
C         51.41700        30.91392        -0.48825
C         52.67395        33.13101        -0.95146
C         51.42203        33.64832        -1.54709
C         52.62143        35.92922        -1.70669
C         51.37079        35.19445        -1.89898
C         52.60799        37.32919        -1.64908
C         51.33135        38.09466        -2.01172
C         52.55850        40.20260        -1.32227
C         51.33385        39.51601        -1.45483
C         52.58009        41.60059        -1.01347
C         51.35101        42.27965        -0.78331
C         52.62781        44.24965         0.03359
C         51.33563        43.78108        -0.58973
C         52.68409        45.52766         0.80127
C         51.40123        46.25609         0.99489
C         51.37783        47.65414         1.25076
C         55.15096        27.55716         0.58960
C         53.96902        26.90657         0.84130
C         55.15921        28.92253         0.17596
C         53.92183        29.60437         0.01114
C         55.14514        31.67697        -0.56309
C         53.93984        30.98818        -0.32673
C         55.14406        33.09340        -0.97161
C         53.94569        33.75838        -1.28290
C         55.15277        35.91941        -1.43677
C         53.93435        35.15786        -1.88969
C         55.11843        37.40410        -1.20182
C         53.80646        38.07242        -1.52963
C         55.03253        40.21857        -1.50149
C         53.80573        39.49889        -1.48696
C         55.05188        41.61733        -1.20572
C         53.83733        42.28498        -0.96308
C         55.16602        44.41670        -0.37183
C         53.85632        43.72220        -0.63646
C         55.14837        45.63689         0.47832
C         54.01210        46.18079         0.95464
C         56.36961        29.62176        -0.06576
C         56.36192        30.95094        -0.43788
C         56.35220        33.83266        -1.02334
C         56.30913        35.23935        -1.12999
C         56.27154        38.14847        -1.83548
C         56.23620        39.49731        -1.88085
C         56.30715        42.31357        -0.96552
C         56.37472        43.58775        -0.50190
O         52.66299        44.18661         1.47871
O         28.78026        33.28160        -2.49813
O         43.46003        47.60196         3.26021
O         48.55833        33.82850         0.35323
O         46.98940        40.57237        -2.94827
O         38.56283        48.69327        -1.07779
O         52.53855        32.86817         0.49063
O         44.99478        36.44871        -2.95452
O         43.35290        23.15484         3.50320
O         34.76823        28.93033        -1.41307
O         54.43871        44.59604        -1.64961
O         49.01518        46.59518         2.67479
O         51.50566        34.11780        -2.91980
O         48.04635        31.11245        -1.89198
O         43.49743        34.07347         1.02392
O         47.53130        36.47807        -3.12442
O         36.20220        44.10470         1.34849
O         36.92788        25.30328         2.75744
O         43.32051        49.44133         0.16860
O         29.34336        31.31303         0.46617
O         51.32764        38.20107        -3.45704
H         52.15030        38.65470        -3.73602
O         29.49470        35.68740        -2.55931
H         29.08416        35.00649        -3.14445
O         34.13613        37.93411         1.48962
H         33.46838        38.54897         1.86262
O         43.75588        45.29871         2.59300
H         43.57960        45.94596         3.33804
O         48.84931        28.68690        -1.78535
H         48.28855        29.27070        -2.34893
O         43.52476        50.13654         3.78229
H         43.48947        49.13221         3.84335
O         51.29272        44.37506        -1.92398
H         50.49604        44.03479        -2.38296
O         55.30186        37.54628         0.25532
H         55.27097        38.50600         0.45848
O         29.06136        39.75530        -2.23182
H         29.74195        39.17161        -2.63075
O         32.94637        29.09339         1.70109
H         32.14739        28.70669         2.11792
O         29.99826        35.57314         1.04105
H         30.72438        35.91596         1.60298
O         41.44246        27.30566         3.19291
H         42.16808        26.80267         3.62235
O         54.06813        34.99044        -3.34988
H         53.22886        34.56621        -3.65517
O         40.77642        50.53193        -0.82632
H         41.69028        50.18984        -0.97090
O         37.45462        44.64570        -2.03595
H         38.18288        45.14288        -2.46627
O         45.52351        32.27698         1.84419
H         44.84269        32.96583         2.03882
O         41.37517        39.80031        -2.98817
H         42.14606        39.33606        -3.38104
O         50.03273        37.37310        -0.16691
H         49.29662        36.81519         0.16314
O         38.88117        31.53259         2.00904
H         39.61970        31.10242         2.49250
O         41.46846        42.71278        -2.51565
H         41.39909        41.82957        -2.95555
H         27.77928        26.74015        -2.68891
H         26.47526        28.84354        -3.09222
H         26.19601        31.29416        -2.81858
H         25.68089        33.28715        -1.30712
H         25.69390        35.65245        -0.85993
H         25.71271        37.55624        -0.30637
H         25.73787        39.92984         0.10159
H         25.71551        41.84197         0.23833
H         25.74299        44.27369         0.52663
H         26.97331        46.40612         0.65188
H         29.69341        25.61569        -1.64299
H         29.07837        47.66986         0.65611
H         32.89058        23.51465         0.31454
H         30.88908        24.67346        -0.44081
H         32.80852        49.86490         0.70794
H         30.72047        48.63884         0.63755
H         34.47677        22.65536         1.07210
H         34.50771        50.76711         1.06049
H         36.54501        21.52263         1.59137
H         36.59990        51.93489         1.29151
H         40.35646        19.41825         1.90600
H         38.20045        20.58621         1.68262
H         40.41024        53.90961         1.97214
H         38.28487        52.87018         1.35888
H         42.78772        19.45488         1.96125
H         42.85617        53.79214         2.32441
H         44.92152        20.63774         2.02815
H         44.86844        52.49204         2.78691
H         48.64589        22.85695         1.85661
H         46.54682        21.67528         2.23911
H         48.58388        50.30043         2.06334
H         46.47283        51.50403         2.36331
H         50.25584        23.84453         1.97282
H         50.21940        49.44698         1.36663
H         52.35801        24.99718         1.62178
H         52.31959        48.21674         1.17403
H         56.10924        27.03363         0.71834
H         54.00327        25.85944         1.16991
H         56.11494        46.12139         0.68764
H         54.06784        47.10442         1.55035
H         57.32508        29.08898         0.04475
H         57.32157        31.44687        -0.63405
H         57.31288        33.35597        -0.79100
H         57.21646        35.80682        -0.87501
H         57.17170        37.59857        -2.14538
H         57.10361        40.06278        -2.25072
H         57.23930        41.73910        -1.06381
H         57.34456        44.01733        -0.20902
