         640
 CSIRO Nanostructure Databank - Neutral Graphene Oxide Data Set
C         23.33153        27.41876         2.47544
C         23.37254        28.79403         2.65066
C         23.35457        31.70978         2.48125
C         23.35019        33.08300         2.32907
C         23.47909        35.69375         0.92910
C         23.54959        36.98463         0.42312
C         23.75295        39.70537        -0.72494
C         23.83720        40.99531        -1.20858
C         24.23018        43.64865        -2.42158
C         24.32795        44.93957        -2.87240
C         25.57305        24.61453         1.43593
C         24.44383        25.30303         1.82816
C         25.73945        27.38277         1.97757
C         24.49428        26.69725         2.09660
C         25.78517        28.82004         2.18954
C         24.56354        29.52873         2.47487
C         25.78577        31.71037         2.42424
C         24.57314        30.98531         2.48662
C         25.79565        33.12705         2.38937
C         24.54905        33.82441         2.25317
C         25.45318        36.15108         2.19761
C         24.46306        35.22567         1.83413
C         25.70512        37.36267         1.51829
C         24.65973        37.83271         0.66921
C         25.87256        39.97107         0.46708
C         24.75956        39.16438         0.11523
C         25.90535        41.33299         0.04318
C         24.90767        41.84537        -0.83144
C         26.00108        44.06295        -0.76805
C         25.04047        43.18866        -1.34024
C         26.05662        45.44370        -1.17818
C         25.18786        45.87609        -2.22446
C         25.74427        48.17803        -1.76342
C         25.10873        47.25155        -2.55880
C         28.02929        23.16007         0.71266
C         28.03794        24.54696         0.93729
C         26.83078        25.26761         1.32571
C         28.20123        27.33348         1.58764
C         26.89636        26.65001         1.62561
C         28.24048        28.82597         1.78847
C         26.97806        29.52906         2.04773
C         28.24579        31.69606         1.78071
C         27.09953        30.96813         2.46330
C         28.26745        33.08608         1.84748
C         27.08985        33.79684         2.29095
C         28.32779        35.94715         2.04566
C         27.24586        35.15682         2.53672
C         28.22546        37.37098         1.87281
C         26.97856        38.04586         1.61990
C         28.17169        40.18765         1.31504
C         27.00867        39.41017         1.16470
C         28.14933        41.57750         1.03313
C         26.96487        42.18711         0.48390
C         27.91548        44.46491         0.80197
C         26.90860        43.57096         0.22025
C         27.77107        45.98462         0.66811
C         26.85695        46.39419        -0.47488
C         28.04760        48.96432         0.85635
C         26.57206        47.74728        -0.69407
C         28.11061        50.20585         1.46975
C         30.41355        23.14165         0.18071
C         29.18578        22.47651         0.34405
C         30.45264        24.56066         0.35067
C         29.27113        25.25126         0.73630
C         30.46418        27.38960         0.53813
C         29.33339        26.66531         0.91481
C         30.39813        28.86529         0.48011
C         29.35876        29.58930         1.19719
C         30.60366        31.71258         0.93601
C         29.38104        30.98465         1.25842
C         30.65215        33.13418         1.19915
C         29.48810        33.81988         1.58164
C         30.70222        35.98738         1.42310
C         29.50804        35.25472         1.67681
C         30.67834        37.41471         1.55047
C         29.46879        38.08276         1.70977
C         30.67435        40.27328         1.31918
C         29.44304        39.58482         1.86701
C         30.61214        41.67218         1.06718
C         29.34857        42.32773         1.05113
C         30.50004        44.54595         0.74181
C         29.28357        43.78728         1.04842
C         30.40953        45.96839         0.59899
C         29.13439        46.70102         0.66534
C         30.51217        48.63546         1.37722
C         29.18794        48.06577         0.84944
C         30.54471        50.12613         1.54402
C         29.36798        50.79817         1.77626
C         32.86680        20.37133        -0.65912
C         31.65397        21.09852        -0.48745
C         32.93459        23.10503         0.24349
C         31.63672        22.41581        -0.09741
C         32.90468        24.59509        -0.03780
C         31.66931        25.29782         0.13215
C         32.87779        27.45518        -0.11758
C         31.66205        26.71739         0.14410
C         32.91629        28.87857        -0.12554
C         31.67022        29.64827         0.09078
C         33.11019        31.68081         0.59292
C         31.74701        31.03945         0.50923
C         33.02968        33.18270         0.52723
C         31.87286        33.86516         0.95202
C         33.09612        36.02294         0.79413
C         31.89279        35.29088         1.07537
C         33.15383        37.43157         0.98928
C         32.00078        38.15628         1.66084
C         33.07469        40.33925         0.93371
C         31.89629        39.61009         1.23663
C         33.03830        41.73383         0.69388
C         31.79504        42.41897         0.79039
C         32.91666        44.54144         0.19077
C         31.71952        43.84410         0.58695
C         32.77088        45.96512        -0.16878
C         31.58203        46.68841         0.31577
C         32.83982        48.81742         0.39441
C         31.67745        48.08991         0.59198
C         32.95332        50.17557         0.89554
C         31.82640        50.80521         1.49867
C         33.12474        52.83144         1.81654
C         31.94597        52.12530         1.97580
C         35.33795        18.85412        -1.04199
C         35.35379        20.24525        -0.78943
C         34.10756        20.97218        -0.55250
C         35.35351        23.07619        -0.34093
C         34.16767        22.40036        -0.28814
C         35.36893        24.54566        -0.19022
C         34.08807        25.29725        -0.21269
C         35.28772        27.45849        -0.60270
C         34.09055        26.73381        -0.31804
C         35.29785        28.85505        -0.66995
C         34.11132        29.58352        -0.37716
C         35.17728        31.78673        -0.89091
C         34.14976        31.04815        -0.32625
C         35.15317        33.23879        -0.70777
C         34.15912        33.90793         0.07783
C         35.38120        36.08037        -0.14028
C         34.21723        35.33699         0.24460
C         35.44824        37.49278         0.08061
C         34.31621        38.14074         0.65607
C         35.58394        40.36227         0.46753
C         34.35480        39.60367         0.89070
C         35.45893        41.81561         0.21764
C         34.25159        42.47259         0.35312
C         35.33893        44.65702        -0.31556
C         34.15206        43.90502         0.08679
C         35.26150        46.02157        -0.59379
C         33.97969        46.75399        -0.58817
C         35.29318        48.93390        -0.22973
C         33.94263        48.29632        -0.52088
C         35.36863        50.22518         0.25229
C         34.17689        50.88843         0.77308
C         35.46890        53.00311         1.01854
C         34.24499        52.24179         1.19513
C         35.51345        54.38448         1.26305
C         37.76436        18.79816        -1.20915
C         36.51468        18.14388        -1.20499
C         37.79332        20.21370        -1.05184
C         36.59859        20.91610        -0.77451
C         37.83298        23.11491        -0.95796
C         36.68566        22.35551        -0.32105
C         37.81131        24.49953        -1.03108
C         36.62193        25.26339        -0.57429
C         37.74176        27.40891        -1.38048
C         36.48847        26.68534        -1.01216
C         37.77842        28.88086        -1.29839
C         36.56344        29.67520        -0.83525
C         37.69241        31.72189        -1.66378
C         36.32364        31.01387        -1.62507
C         37.82479        33.04416        -1.96693
C         36.04478        34.12948        -1.34299
C         37.60240        36.09728        -1.50621
C         36.36834        35.41701        -0.91940
C         37.75107        37.50716        -0.95121
C         36.61125        38.22411        -0.36308
C         37.77988        40.38357        -0.69534
C         36.68204        39.62042        -0.19359
C         37.82836        41.77097        -0.62082
C         36.75591        42.56411         0.09649
C         37.75200        44.60312        -0.90853
C         36.61346        43.97143        -0.43155
C         37.70808        46.02972        -1.28837
C         36.43550        46.77479        -1.06103
C         37.81924        48.92964        -0.65890
C         36.48649        48.29049        -0.81256
C         37.83092        50.31027        -0.17915
C         36.63858        50.94451         0.23847
C         37.87809        53.06667         0.57063
C         36.65655        52.33143         0.60365
C         37.90019        54.48042         0.80797
C         36.69544        55.11433         1.13227
C         40.31460        15.96469        -1.23782
C         39.06564        16.67850        -1.17221
C         40.27775        18.77094        -1.67559
C         39.00306        18.04201        -1.31015
C         40.26456        20.26079        -1.40796
C         39.05300        20.94337        -1.18925
C         40.24733        23.05405        -1.51610
C         39.04849        22.36927        -1.21247
C         40.18838        24.49576        -1.76387
C         38.97571        25.25022        -1.42582
C         40.24403        27.37527        -1.50612
C         39.00799        26.64521        -1.44445
C         40.23834        28.80166        -1.52085
C         38.97324        29.51748        -1.49934
C         40.23344        31.72090        -1.86615
C         38.93103        30.93157        -2.00926
C         40.21199        33.17240        -1.55997
C         38.99026        33.86639        -1.66434
C         40.15443        35.97174        -1.37991
C         38.92582        35.27912        -1.45426
C         40.15167        37.45515        -1.70372
C         38.91662        38.17442        -1.19909
C         40.20469        40.35549        -1.33437
C         38.87617        39.66179        -1.43292
C         40.20613        41.73647        -1.33237
C         39.00384        42.48479        -1.04981
C         40.23923        44.64106        -1.24987
C         38.99908        43.89359        -1.08078
C         40.25920        46.04168        -1.19084
C         39.00944        46.81832        -1.32457
C         40.30357        49.01301        -1.05990
C         38.98928        48.25225        -0.94554
C         40.33193        50.32471        -0.31109
C         39.07514        51.01335        -0.06020
C         40.34994        53.06492         0.61100
C         39.08690        52.35476         0.35085
C         40.36508        54.53455         0.54064
C         39.14780        55.23149         0.66543
C         40.36763        57.33287         0.50536
C         39.17535        56.65114         0.64865
C         42.78930        15.95030        -1.24735
C         41.51114        16.62735        -1.22917
C         42.76130        18.82907        -1.48856
C         41.50100        18.12408        -1.03522
C         42.74275        20.19080        -1.60663
C         41.49407        20.95082        -1.52235
C         42.73066        23.12473        -1.61607
C         41.49459        22.37585        -1.59944
C         42.74857        24.51446        -1.52098
C         41.52005        25.26951        -1.76840
C         42.69634        27.38847        -1.23099
C         41.48540        26.69913        -1.48120
C         42.68011        28.81245        -1.19187
C         41.46107        29.49731        -1.43299
C         42.68492        31.70706        -1.12645
C         41.50145        30.96679        -1.59951
C         42.65364        33.11804        -1.08877
C         41.41905        33.85428        -1.28578
C         42.65103        35.99602        -1.10433
C         41.39691        35.28027        -1.26265
C         42.64892        37.44555        -1.08883
C         41.42775        38.18037        -1.31279
C         42.65810        40.32463        -1.14081
C         41.43267        39.58965        -1.30230
C         42.70365        41.71045        -1.31602
C         41.45833        42.45742        -1.73883
C         42.71013        44.59073        -1.24251
C         41.47196        43.91443        -1.37491
C         42.74631        45.97243        -1.07692
C         41.54729        46.79041        -1.44257
C         42.75105        48.78293        -0.54712
C         41.56022        48.18547        -0.85783
C         42.81912        50.16168         0.04392
C         41.53359        50.92545        -0.05882
C         42.86421        53.07949         0.10237
C         41.63269        52.32002         0.41216
C         42.83846        54.49815         0.14262
C         41.59925        55.21363         0.36927
C         42.81928        57.33927         0.14566
C         41.59376        56.63701         0.34931
C         43.95558        16.60396        -1.43955
C         45.24631        18.79696        -1.22069
C         44.03495        18.06808        -1.79275
C         45.25592        20.19693        -1.25264
C         44.03916        20.91540        -1.71996
C         45.21549        23.13166        -1.13191
C         44.02829        22.41725        -1.65251
C         45.13908        24.49790        -0.91040
C         43.93830        25.24386        -1.17344
C         45.13118        27.39343        -0.74391
C         43.92170        26.65494        -1.04925
C         45.10166        28.83829        -0.70624
C         43.89768        29.54272        -0.93525
C         45.08051        31.70196        -0.61105
C         43.87572        30.98080        -0.86864
C         45.06801        33.11945        -0.66140
C         43.87020        33.83525        -0.86839
C         45.09097        35.99107        -0.65657
C         43.85298        35.28672        -0.89724
C         45.07974        37.42511        -0.61985
C         43.85693        38.12564        -0.82892
C         45.17022        40.26972        -0.89800
C         43.85613        39.61533        -0.56838
C         45.19694        41.64343        -1.50901
C         43.92791        42.41875        -1.27890
C         45.19612        44.52185        -1.29487
C         43.97202        43.83284        -1.26127
C         45.19132        46.01680        -1.44125
C         44.03081        46.60328        -0.63514
C         45.21418        48.80328        -0.73803
C         44.02129        48.10359        -0.67728
C         45.23254        50.25632        -0.63008
C         44.04999        50.94909        -0.35834
C         45.26289        53.10388        -0.45794
C         44.04606        52.37604        -0.24180
C         45.26007        54.52602        -0.38193
C         44.03673        55.23274        -0.10872
C         43.99154        56.66048        -0.07746
C         47.56668        18.80627        -0.50552
C         46.41230        18.11205        -0.81857
C         47.61336        20.22086        -0.55580
C         46.42291        20.93030        -0.89143
C         47.60523        23.05046        -0.51913
C         46.42457        22.37265        -0.84748
C         47.59392        24.53308        -0.53201
C         46.28094        25.21405        -0.23787
C         47.52518        27.41644        -0.16038
C         46.32128        26.70744        -0.46924
C         47.50454        28.84053        -0.08752
C         46.29996        29.56028        -0.37368
C         47.48241        31.68754         0.05906
C         46.29359        30.97915        -0.33259
C         47.51050        33.12799        -0.00307
C         46.39306        33.83043        -0.73492
C         47.49963        36.00018        -0.13707
C         46.30265        35.30243        -0.43591
C         47.51441        37.43417        -0.16226
C         46.30463        38.12896        -0.43047
C         47.60831        40.22753        -0.62116
C         46.34886        39.56340        -0.65043
C         47.60976        41.68806        -0.70154
C         46.42315        42.41639        -1.12445
C         47.68074        44.54889        -1.12304
C         46.44149        43.81795        -1.17531
C         47.70278        45.95811        -1.06252
C         46.48473        46.70040        -1.07506
C         47.71112        48.81286        -0.85521
C         46.47620        48.08887        -0.88872
C         47.70758        50.24562        -0.82982
C         46.47853        50.96192        -0.73915
C         47.71128        53.10579        -0.80862
C         46.48389        52.39111        -0.67993
C         47.67096        54.52690        -0.78152
C         46.49346        55.21025        -0.58061
C         50.05781        20.26172        -0.03305
C         48.83731        20.94290        -0.28694
C         50.04597        23.08869         0.01861
C         48.83451        22.36503        -0.28322
C         50.04990        24.51894         0.15163
C         48.83588        25.28128        -0.19707
C         49.88185        27.41085         0.55496
C         48.74003        26.72498         0.12986
C         49.87770        28.82586         0.64282
C         48.68406        29.54214         0.30577
C         49.80176        31.65656         0.97805
C         48.63196        30.96049         0.42990
C         49.80687        33.18089         0.93596
C         48.64132        33.85318         0.33847
C         49.91449        35.98257         0.40721
C         48.70343        35.28630         0.17147
C         49.94821        37.41408         0.30202
C         48.75087        38.12699         0.01856
C         50.03514        40.23229        -0.18587
C         48.81204        39.55631        -0.24423
C         50.19892        41.57427        -0.85994
C         48.93491        42.40261        -0.75259
C         50.18387        44.53117        -0.76437
C         48.97926        43.80489        -1.31787
C         50.16541        45.95153        -0.73015
C         48.94825        46.67058        -0.91313
C         50.18261        48.81347        -0.81954
C         48.94324        48.09732        -0.87081
C         50.18818        50.24148        -0.87082
C         48.94780        50.95890        -0.88013
C         50.20278        53.05480        -0.99071
C         48.95222        52.38361        -0.90983
C         51.21937        20.95066         0.23045
C         52.45448        23.09186         0.58916
C         51.24272        22.37176         0.27956
C         52.41010        24.50364         0.76456
C         51.17281        25.20423         0.59964
C         52.35902        27.38481         1.09793
C         51.05218        26.62930         1.10816
C         52.32973        28.83091         1.16168
C         51.09786        29.54041         0.96616
C         52.29060        31.69490         1.22639
C         51.09344        30.95011         1.04657
C         52.29552        33.14316         1.17658
C         51.10762        33.87103         0.93702
C         52.36026        35.98141         0.85751
C         51.13104        35.27293         0.72335
C         52.37660        37.41614         0.72595
C         51.18734        38.11113         0.48176
C         52.49879        40.29425         0.41522
C         51.16037        39.61943         0.59744
C         52.53137        41.68902         0.12649
C         51.36036        42.38630        -0.32548
C         52.51436        44.55563         0.17166
C         51.33089        43.79039        -0.38483
C         52.59628        45.98483        -0.28883
C         51.39546        46.68170        -0.54397
C         52.65467        48.80111        -0.65631
C         51.40868        48.10079        -0.69014
C         52.67238        50.22012        -0.79847
C         51.42723        50.94591        -0.89091
C         51.39465        52.36261        -0.98100
C         54.85486        23.13832         1.01489
C         53.69768        22.43123         0.75486
C         54.84978        24.54957         1.13340
C         53.61033        25.23050         1.04450
C         54.79131        27.36619         1.54282
C         53.54265        26.66950         1.19436
C         54.77270        28.86417         1.65498
C         53.51502        29.57378         1.36859
C         54.75751        31.71995         1.56304
C         53.52113        30.99250         1.37259
C         54.75217        33.13892         1.53803
C         53.53383        33.85155         1.29397
C         54.79118        35.99050         1.33166
C         53.55388        35.27161         1.16584
C         54.79646        37.41981         1.17222
C         53.63255        38.12490         0.88430
C         54.93900        40.24088         0.73203
C         53.67750        39.57321         0.70499
C         54.96863        41.74141         0.77182
C         53.75969        42.41225         0.20291
C         55.03172        44.49961        -0.08738
C         53.80881        43.80307         0.02528
C         55.06846        45.91098        -0.18725
C         53.83723        46.65565        -0.29618
C         55.12350        48.76342        -0.51182
C         53.87633        48.07469        -0.50183
C         55.11164        50.16866        -0.68368
C         53.92885        50.87377        -0.81707
C         57.38986        24.63537         1.20676
C         56.10772        25.29614         1.23169
C         57.31303        27.48834         1.09218
C         56.07385        26.67584         1.34509
C         57.26516        28.92791         1.54515
C         56.05278        29.60668         1.59459
C         57.22307        31.75139         1.85545
C         56.00112        31.02904         1.68451
C         57.18380        33.16548         1.97819
C         55.97742        33.86343         1.74804
C         57.25927        35.99731         1.65242
C         55.97908        35.29592         1.64191
C         57.30538        37.35678         1.33584
C         56.06347        38.16978         1.51017
C         57.40005        40.21781         0.83369
C         56.13974        39.55709         0.93642
C         57.44600        41.63366         0.50045
C         56.26907        42.34340         0.33335
C         57.55832        44.45776        -0.02027
C         56.29055        43.70035        -0.31671
C         57.55415        45.87266        -0.08597
C         56.32291        46.60752        -0.23083
C         57.61621        48.68777        -0.28588
C         56.35899        48.02155        -0.34679
C         58.56397        25.34465         1.38775
C         59.74507        27.50341         1.67750
C         58.57366        26.75769         1.45602
C         59.72370        28.88994         1.74734
C         58.50251        29.63684         1.69700
C         59.69166        31.82472         1.92486
C         58.47227        31.04669         1.86744
C         59.68178        33.15618         2.14986
C         58.41054        33.89426         2.47711
C         59.64275        36.09905         2.22638
C         58.45971        35.32766         2.02378
C         59.73155        37.39570         1.80409
C         58.62155        37.97934         0.97166
C         59.82608        40.14414         0.65417
C         58.61703        39.48889         0.88657
C         59.88657        41.52853         0.41580
C         58.72742        42.29490         0.32929
C         59.97649        44.47462         0.29467
C         58.75709        43.74520         0.17911
C         59.99524        45.84749         0.19279
C         58.79104        46.57823         0.00510
C         58.79239        47.99489        -0.09983
O         48.27525        42.31211         0.50789
O         28.62599        27.90491         2.89657
O         36.70855        33.69645        -2.48710
O         26.27035        35.82799         3.29264
O         28.38113        44.20281         2.15580
O         40.83054        24.90783        -3.00829
O         41.10900        52.53066         1.78103
O         30.62017        29.36842        -0.88964
O         54.69990        28.02989         2.87926
O         41.13948        31.40257        -2.98503
O         38.30738        46.39300        -2.56465
O         49.51015        32.45950         2.17913
O         26.88663        48.77391         0.16738
O         48.39683        25.07868        -1.61571
O         36.78902        26.90086        -2.42660
O         36.31324        25.05213         0.85497
O         44.25184        21.69647        -2.94052
O         35.35804        40.01301         1.89224
O         33.04934        46.23941        -1.61457
O         36.17138        47.72342        -2.13087
O         41.48458        42.41103        -3.22167
H         40.57988        42.62577        -3.53601
O         37.22733        42.71590         1.49020
H         37.02828        41.87685         1.96139
O         33.56086        48.78005        -1.83986
H         33.19791        48.00640        -2.33209
O         52.29754        44.62177         1.63496
H         51.41091        45.01689         1.78024
O         46.78125        33.75344        -2.16365
H         46.07720        34.19883        -2.68216
O         42.98308        49.93650         1.49569
H         42.73114        50.76807         1.95547
O         27.09853        46.42574         1.87714
H         27.48064        45.89793         2.61554
O         45.27396        41.42625        -2.98322
H         44.35628        41.30641        -3.31301
O         32.30191        38.18412         3.09237
H         31.60012        38.72186         3.52324
O         44.27246        46.22888         0.75445
H         43.67258        46.75840         1.32129
O         58.30452        33.92064         3.94923
H         58.24078        32.99009         4.25232
O         35.89370        30.72796        -2.95680
H         36.69496        30.52795        -3.49329
O         33.60586        31.36637         1.95613
H         34.48770        31.78707         2.04750
O         37.03667        22.30849         1.11028
H         37.00236        23.24326         1.42765
O         27.49152        30.90128         3.88853
H         28.17781        30.20385         3.97436
O         58.90305        37.54001        -0.42459
H         58.96618        36.56056        -0.40855
O         40.43762        18.62807        -3.11606
H         39.66763        19.04843        -3.55212
O         33.04717        22.99202         1.70587
H         33.93031        23.33459         1.96242
O         36.91010        30.12930         0.51614
H         36.92806        29.34753         1.10755
O         29.47935        39.84257         3.31850
H         28.62760        39.53198         3.69343
O         56.30788        43.42884        -1.77488
H         57.15000        42.96582        -1.97368
O         50.72329        26.47436         2.54022
H         51.54034        26.19075         3.00374
O         55.98582        38.40164         2.97646
H         55.27610        39.06406         3.12668
O         30.64625        48.07028         2.73275
H         29.94343        48.47250         3.28611
O         44.21246        18.10276        -3.24477
H         44.17932        19.04168        -3.52938
O         37.37449        36.31300        -2.94082
H         37.07601        35.44538        -3.30565
O         49.19101        43.67347        -2.77339
H         49.33817        44.57435        -3.13270
O         41.40307        18.35392         0.40168
H         42.10468        17.82962         0.84080
O         43.72745        39.73644         0.90439
H         42.89538        39.28301         1.15845
O         38.52019        39.76588        -2.86364
H         39.14401        39.16302        -3.34168
O         40.35587        49.41142        -2.47208
H         40.56449        48.59787        -2.99385
O         46.08577        25.03983         1.20891
H         45.25631        25.49982         1.45718
O         50.46559        41.29719        -2.26694
H         50.24689        42.11583        -2.77506
O         40.05828        37.49914        -3.17868
H         39.21779        37.02673        -3.40744
O         54.87341        42.04792         2.23274
H         54.38912        42.89826         2.32959
O         44.92123        46.33624        -2.83871
H         45.60938        45.90442        -3.38662
O         57.35555        27.60691        -0.40216
H         57.56371        26.71241        -0.74980
O         41.58463        46.98738        -2.91759
H         41.58938        46.09667        -3.33092
O         38.74384        30.70610        -3.45702
H         39.65189        30.69107        -3.85072
O         50.82095        39.88650         2.01912
H         49.90565        39.56493         2.16834
H         22.38339        26.87716         2.60293
H         22.44292        29.31157         2.92260
H         22.39353        31.18314         2.54214
H         22.38948        33.61336         2.26889
H         22.65671        35.03388         0.61958
H         22.74511        37.32652        -0.24116
H         22.89137        39.08897        -1.01360
H         23.04257        41.36758        -1.86866
H         23.52975        42.95935        -2.91097
H         23.69835        45.28823        -3.70350
H         25.48855        23.54166         1.21825
H         23.48305        24.77655         1.92149
H         25.60437        49.25504        -1.92306
H         24.46097        47.57215        -3.38660
H         27.10582        22.58184         0.84797
H         27.21179        50.83547         1.47348
H         29.13302        21.38658         0.21827
H         29.36877        51.86805         2.02625
H         32.78119        19.30736        -0.91604
H         30.71181        20.56666        -0.68259
H         33.17738        53.85901         2.19814
H         31.10007        52.61134         2.47894
H         34.38710        18.30631        -1.06970
H         34.60213        54.92654         1.54667
H         36.46310        17.05715        -1.35508
H         36.66769        56.19606         1.31931
H         40.29225        14.86522        -1.27570
H         38.15433        16.08993        -0.99283
H         40.37420        58.43240         0.49140
H         38.24202        57.22218         0.74341
H         42.79235        14.85541        -1.12350
H         42.80943        58.43882         0.14849
H         44.88322        16.01685        -1.50077
H         44.90836        57.23916        -0.25022
H         48.45865        18.23270        -0.22243
H         46.42543        17.01491        -0.77877
H         48.59547        55.10544        -0.90768
H         46.52538        56.30719        -0.55420
H         50.09243        19.16481        -0.04842
H         50.23605        54.15084        -1.04470
H         52.13604        20.37844         0.42352
H         52.33176        52.93288        -1.02684
H         55.79587        22.58193         1.11318
H         53.76311        21.34027         0.65234
H         56.05496        50.72966        -0.70964
H         53.98267        51.96356        -0.94014
H         57.44178        23.54175         1.13279
H         57.66003        49.78175        -0.36787
H         59.51481        24.80112         1.49518
H         60.69918        26.97094         1.80967
H         60.67340        29.41483         1.91397
H         60.65330        31.32354         1.74716
H         60.63348        33.70584         2.17539
H         60.48614        35.65026         2.77044
H         60.65078        37.97308         1.97578
H         60.76233        39.56921         0.64112
H         60.87323        41.99049         0.27530
H         60.91986        43.93895         0.46597
H         60.94596        46.39468         0.26874
H         59.74750        48.53579        -0.03539
