         732
 CSIRO Nanostructure Databank - Neutral Graphene Oxide Data Set
C         23.14601        24.34211        -0.37085
C         22.12700        24.91332         0.37150
C         23.13770        27.10667         0.10225
C         22.12214        26.29259         0.61579
C         23.03379        28.58004         0.22357
C         22.17849        29.20504         1.23392
C         23.26290        31.38771         0.89524
C         22.25043        30.54105         1.47448
C         23.18571        32.85348         1.09054
C         22.37430        33.45270         2.15964
C         23.51911        35.61862         1.91702
C         22.50841        34.75634         2.50228
C         23.54885        37.04407         2.23902
C         22.52372        37.66721         2.97200
C         23.61411        39.83852         2.77253
C         22.56322        39.03058         3.25039
C         23.63709        41.30813         3.13544
C         22.32806        42.02906         2.96538
C         23.51416        44.18507         2.84752
C         22.30305        43.37877         2.94736
C         23.43257        45.62096         2.79543
C         22.24870        46.31860         3.14376
C         23.28400        48.43600         2.56039
C         22.18106        47.69638         3.02095
C         25.36212        23.04909        -1.69192
C         25.30785        24.47262        -1.56220
C         24.22194        25.11771        -0.88592
C         25.33457        27.36249        -1.01324
C         24.21427        26.54113        -0.64261
C         25.40979        28.72234        -0.73260
C         24.21536        29.44077        -0.27440
C         25.50766        31.60470        -0.17557
C         24.31261        30.84350         0.16484
C         25.56112        32.99535         0.08941
C         24.36132        33.69229         0.59445
C         25.55316        35.89858         0.44239
C         24.48912        35.06912         1.10318
C         25.73333        37.24791         1.07355
C         24.64426        37.84063         1.78366
C         25.71658        40.07372         1.39474
C         24.66068        39.23774         2.06628
C         25.86490        41.44482         1.99095
C         24.78590        42.08571         2.52409
C         25.86848        44.30417         2.13828
C         24.74334        43.54238         2.60757
C         25.74495        45.69515         1.95910
C         24.56139        46.37433         2.33267
C         25.66509        48.57179         1.81101
C         24.48287        47.80521         2.22156
C         25.69231        49.98061         1.91561
C         27.79289        22.99827        -2.19100
C         26.49870        22.34202        -1.98300
C         27.79792        24.50166        -2.13722
C         26.49008        25.25431        -1.97867
C         27.79845        27.32149        -1.19908
C         26.48934        26.78295        -1.80685
C         27.79241        28.82980        -1.29885
C         26.63790        29.49456        -0.94314
C         27.88500        31.65062        -0.82926
C         26.65500        30.93448        -0.69871
C         27.94837        33.01397        -0.44199
C         26.78089        33.72335        -0.04718
C         28.03686        35.87212         0.05475
C         26.84361        35.13911         0.22176
C         28.09315        37.28572         0.31606
C         26.94102        37.96352         0.85106
C         28.19609        40.08335         0.88137
C         27.01225        39.34666         1.14764
C         28.25593        41.48119         1.12390
C         27.19405        42.13932         1.96065
C         28.20848        44.31868         1.33448
C         27.08062        43.62169         1.74650
C         28.18231        45.82085         1.47149
C         26.79899        46.40817         1.14268
C         27.97740        48.65362         0.98643
C         26.82287        47.91591         1.32990
C         28.01546        50.06153         1.17053
C         26.83387        50.70226         1.61150
C         30.26336        20.26797        -1.21181
C         29.16862        20.84923        -1.72006
C         30.36663        23.07975        -1.88759
C         29.12504        22.28096        -2.09989
C         30.36211        24.44865        -1.81095
C         29.04413        25.15440        -1.54497
C         30.32056        27.36641        -1.42868
C         29.04914        26.66476        -1.84485
C         30.31096        28.77074        -1.42486
C         29.03437        29.53470        -1.75003
C         30.29323        31.62585        -1.42534
C         29.08480        30.97490        -1.29855
C         30.42609        33.04987        -1.05133
C         29.22819        33.74443        -0.48016
C         30.37196        35.93873        -0.75172
C         29.22906        35.21914        -0.40834
C         30.41110        37.37139        -0.55715
C         29.28082        38.01621         0.05733
C         30.50700        40.16751         0.00101
C         29.33539        39.41908         0.31191
C         30.54892        41.56788         0.22287
C         29.39514        42.22812         0.76224
C         30.58796        44.39851         0.57342
C         29.39349        43.65567         0.89779
C         30.57691        45.79069         0.59779
C         29.27595        46.47678         0.66515
C         30.43874        48.68356         0.13414
C         29.17574        47.94376         0.45149
C         30.42958        50.22886         0.35623
C         29.24962        50.81881         1.00185
C         30.59769        52.80789         1.45570
C         29.39615        52.09113         1.54950
C         32.81632        18.83271        -0.82659
C         32.81047        20.23184        -0.98172
C         31.52346        21.04991        -0.92700
C         32.85285        23.08128        -1.46718
C         31.64043        22.27084        -1.85954
C         32.82371        24.50240        -1.43814
C         31.58159        25.21132        -1.57282
C         32.77999        27.32342        -1.11568
C         31.55372        26.61921        -1.36700
C         32.73635        28.79873        -0.79606
C         31.51505        29.49765        -1.31544
C         32.78018        31.59193        -1.65715
C         31.54402        30.89802        -1.54102
C         32.78912        33.02714        -2.04713
C         31.50756        33.84035        -1.71588
C         32.34746        36.15215        -2.11952
C         31.47778        35.31363        -1.47783
C         32.52918        37.61540        -1.92394
C         31.52081        38.14310        -0.94447
C         32.82468        40.22887        -0.91703
C         31.62420        39.51726        -0.62006
C         32.88748        41.62195        -0.62124
C         31.74083        42.30340        -0.07632
C         32.96243        44.45907        -0.17477
C         31.78578        43.70160         0.14625
C         33.00033        45.86252        -0.00741
C         31.84808        46.58153         0.63974
C         32.91198        48.74780         0.01587
C         31.72699        48.01731         0.19046
C         32.91734        50.18804         0.13934
C         31.73649        50.87978         0.47945
C         33.01860        52.95546         0.87366
C         31.77071        52.23223         0.93665
C         33.06494        54.34057         1.21132
C         35.24946        18.78799        -0.71251
C         34.00500        18.12055        -0.74352
C         35.25896        20.20831        -0.82257
C         34.03709        20.92147        -1.03486
C         35.24264        23.10573        -1.01298
C         34.03527        22.38115        -1.18832
C         35.24245        24.50388        -0.96618
C         34.02784        25.21764        -1.14496
C         35.25035        27.39025        -0.85485
C         33.99733        26.65101        -1.03220
C         35.25238        28.82343        -0.92701
C         34.00979        29.53410        -1.11102
C         35.34110        31.55695        -1.69896
C         34.00035        30.88790        -1.44848
C         35.29260        33.06593        -1.68361
C         34.10349        33.72139        -2.07759
C         35.26402        35.91888        -1.96461
C         34.19360        35.08937        -2.37439
C         35.18674        37.37541        -1.83156
C         33.96613        38.10442        -1.64971
C         35.24478        40.19584        -1.45919
C         34.01348        39.49474        -1.35510
C         35.20568        41.67614        -1.51520
C         34.05863        42.38211        -0.91680
C         35.33183        44.52471        -0.92858
C         34.11670        43.77257        -0.69736
C         35.36064        45.93696        -0.70958
C         34.16714        46.61564        -0.30743
C         35.36717        48.77213        -0.37003
C         34.16088        48.04327        -0.17935
C         35.37313        50.20788        -0.16594
C         34.17782        50.89322         0.13195
C         35.44523        53.01801         0.43098
C         34.20066        52.29755         0.46178
C         35.48027        54.40094         0.87015
C         34.24575        55.03094         1.22144
C         37.76453        15.99361        -0.53669
C         36.56442        16.66186        -0.65231
C         37.70637        18.79198        -0.30525
C         36.50185        18.07470        -0.56297
C         37.69434        20.23696        -0.37841
C         36.51073        20.90405        -0.71246
C         37.80603        23.10211        -0.87298
C         36.51473        22.34959        -1.00616
C         37.77648        24.56811        -0.66030
C         36.44694        25.23217        -0.40927
C         37.68959        27.42806        -0.57191
C         36.45902        26.71322        -0.68130
C         37.68446        28.85651        -0.61601
C         36.45868        29.53442        -0.79086
C         37.72342        31.72704        -0.92093
C         36.39198        31.04045        -0.71884
C         37.74538        33.09177        -1.29111
C         36.48892        33.79291        -1.58471
C         37.70215        35.95538        -1.70429
C         36.47722        35.22170        -1.69655
C         37.68669        37.34721        -1.76571
C         36.43753        38.07452        -1.70992
C         37.72514        40.23090        -1.70060
C         36.45765        39.50305        -1.62566
C         37.76054        41.68007        -1.77225
C         36.48915        42.44355        -1.72854
C         37.72139        44.59999        -1.48975
C         36.51886        43.87433        -1.34530
C         37.77550        45.99653        -1.28350
C         36.56611        46.68506        -0.90885
C         37.77559        48.89445        -1.12733
C         36.55916        48.09185        -0.72466
C         37.83715        50.25839        -0.48382
C         36.62705        50.92238        -0.18347
C         37.88741        53.05548        -0.05220
C         36.62622        52.32887         0.08833
C         37.92552        54.52725         0.48787
C         36.70110        55.08255         1.04981
C         37.99790        56.94638         1.99659
C         36.81168        56.33513         1.75744
C         40.36079        14.66810        -0.59381
C         40.23119        15.97359        -0.13523
C         38.96895        16.68525        -0.22318
C         40.08902        18.81868         0.54603
C         38.91420        18.08633        -0.05786
C         40.15081        20.27924         0.20535
C         38.93779        20.97573        -0.18315
C         40.22892        23.09050        -0.27579
C         38.97193        22.34433        -0.40590
C         40.23603        24.57885        -0.38258
C         38.93308        25.27765        -0.49337
C         40.13870        27.43751        -0.32377
C         38.92580        26.72791        -0.42123
C         40.11114        28.86525        -0.33942
C         38.91902        29.58294        -0.48439
C         40.14865        31.75674        -0.68519
C         38.92944        31.03679        -0.65576
C         40.18804        33.12149        -1.08531
C         38.97014        33.78456        -1.39755
C         40.23996        35.94473        -1.87454
C         38.94160        35.15749        -2.04596
C         40.16292        37.40244        -1.64523
C         38.95420        38.07662        -1.73572
C         40.18937        40.24502        -1.96369
C         38.92249        39.52455        -1.74483
C         40.22081        41.71154        -1.91384
C         38.95140        42.38990        -1.88423
C         40.20858        44.62814        -2.08637
C         38.91049        43.87436        -1.98885
C         40.25040        46.02395        -1.59083
C         39.03991        46.71217        -1.32527
C         40.26547        48.78642        -0.77944
C         39.06555        48.11840        -1.03312
C         40.32165        50.19363        -0.48886
C         39.09951        50.91853        -0.34690
C         40.37701        53.00187         0.09401
C         39.15046        52.31924        -0.08078
C         40.38931        54.38499         0.53719
C         39.22737        55.03946         0.89716
C         40.35754        57.21698         1.01008
C         39.32966        56.30952         1.72137
C         40.47761        58.59749         1.58313
C         42.77647        14.68355        -0.23450
C         41.60387        14.00998        -0.59682
C         42.74212        15.99918         0.22809
C         41.41164        16.63299         0.54826
C         42.60926        18.84899         0.55480
C         41.42390        18.13262         0.39619
C         42.58908        20.28942         0.67099
C         41.34334        20.95753         0.45134
C         42.48675        23.23047         0.93515
C         41.30603        22.43596         0.50694
C         42.56709        24.67515         0.57871
C         41.41168        25.33304         0.12072
C         42.62031        27.43350         0.00887
C         41.39718        26.73398        -0.08060
C         42.62298        28.82509        -0.58105
C         41.38768        29.59109        -0.16807
C         42.69746        31.75345        -0.60292
C         41.40832        31.07682        -0.35176
C         42.67921        33.15444        -0.86316
C         41.45956        33.80449        -1.14239
C         42.72018        36.00150        -1.15438
C         41.50372        35.23044        -1.50831
C         42.69947        37.39247        -1.16145
C         41.38324        38.13433        -1.12794
C         42.70645        40.28416        -1.43916
C         41.50037        39.50804        -1.74536
C         42.68939        41.68034        -1.60111
C         41.45239        42.37620        -1.88696
C         42.76898        44.57794        -1.92587
C         41.48662        43.84055        -2.13053
C         42.74564        46.03223        -1.61605
C         41.50584        46.66236        -1.38748
C         42.84668        48.74131        -0.69523
C         41.51070        48.00227        -0.78258
C         42.81225        50.20238        -0.48832
C         41.57669        50.88092        -0.32121
C         42.85919        52.93306         0.27973
C         41.60620        52.28166        -0.00553
C         42.87789        54.34743         0.62195
C         41.66494        55.07559         0.71910
C         42.90598        57.17360         1.05067
C         41.67602        56.46560         0.95253
C         42.89931        58.54647         1.39254
C         41.69059        59.21959         1.69402
C         45.20797        16.11955         0.51703
C         43.94592        16.75563         0.46181
C         45.08078        18.92774         0.81250
C         43.88857        18.17333         0.62136
C         45.02139        20.34877         1.03710
C         43.78921        21.00938         0.97585
C         45.00741        23.26844         1.38791
C         43.73423        22.47380         1.28403
C         45.00282        24.73311         1.15700
C         43.77052        25.40429         0.80022
C         44.98892        27.58666         0.75128
C         43.78089        26.78965         0.46249
C         45.14797        28.93270         0.13795
C         43.92334        29.59326        -0.41915
C         45.15194        31.75643        -0.37481
C         43.90735        31.06472        -0.46336
C         45.15300        33.16231        -0.62064
C         43.93764        33.86175        -0.88161
C         45.17911        35.99035        -0.97500
C         43.94817        35.27885        -1.01417
C         45.16318        37.44022        -0.91946
C         43.90376        38.14336        -1.00688
C         45.09292        40.31422        -0.82518
C         43.89407        39.57775        -1.05134
C         45.13023        41.70943        -1.02377
C         43.92056        42.41072        -1.37790
C         45.18058        44.51510        -1.46721
C         43.95547        43.80692        -1.50434
C         45.18980        45.90214        -1.78887
C         43.99293        46.72955        -1.60632
C         45.23709        48.93026        -1.21846
C         44.05025        48.11782        -1.27597
C         45.26578        50.16336        -0.54168
C         44.04309        50.87064        -0.28297
C         45.35698        52.76935         0.74794
C         44.06397        52.22329         0.16612
C         45.37714        54.29068         0.87251
C         44.10980        55.03946         0.78118
C         45.37670        57.15221         0.65315
C         44.13982        56.44617         0.88352
C         46.37240        16.85574         0.66988
C         47.57925        19.03225         0.81402
C         46.34293        18.25851         0.78400
C         47.55393        20.40324         1.11363
C         46.26665        21.05842         1.55503
C         47.47651        23.27090         1.32425
C         46.28554        22.55319         1.30827
C         47.47707        24.71993         1.30868
C         46.22596        25.41132         1.21145
C         47.53350        27.60803         1.03228
C         46.25483        26.88449         1.17389
C         47.54179        29.02598         0.82375
C         46.34431        29.73442         0.46557
C         47.57839        31.85143         0.13045
C         46.35676        31.10320         0.07577
C         47.62569        33.16926        -0.34833
C         46.39506        33.86600        -0.64281
C         47.66624        35.95834        -0.99472
C         46.38731        35.25792        -0.89420
C         47.64579        37.47087        -0.78116
C         46.34142        38.13712        -0.64081
C         47.62941        40.36340        -0.30399
C         46.31041        39.59054        -0.40453
C         47.62027        41.78058        -0.71079
C         46.38896        42.42770        -0.99026
C         47.65799        44.50357        -1.46925
C         46.41531        43.81586        -1.31192
C         47.67905        45.87384        -1.88704
C         46.42405        46.42432        -2.20373
C         47.73977        48.87258        -1.46217
C         46.47874        48.52275        -1.83648
C         47.85784        50.00284        -0.52066
C         46.57189        50.74437        -0.15983
C         47.79541        52.92832        -0.03317
C         46.61818        52.19826         0.11257
C         47.86985        54.33156         0.20668
C         46.67143        55.06655         0.66113
C         46.54855        56.50796         0.41463
C         50.00060        19.12777         0.54056
C         48.81924        18.42012         0.48632
C         50.00839        20.49905         0.89341
C         48.76283        21.15205         1.13215
C         49.94042        23.29221         1.52965
C         48.74073        22.57410         1.34332
C         49.93030        24.74333         1.58337
C         48.69765        25.44309         1.37532
C         49.97450        27.59354         1.22932
C         48.72815        26.88690         1.21695
C         49.98877        29.01686         1.04271
C         48.78406        29.72135         0.85582
C         50.08707        31.79084         0.34100
C         48.77078        31.24210         0.85225
C         50.06487        32.92179        -0.44255
C         48.91417        33.83571        -0.56706
C         50.07824        36.11683        -0.99788
C         48.93413        35.20564        -0.84624
C         50.11754        37.40682        -0.55343
C         48.86073        38.12276        -0.12764
C         50.08322        40.30310        -0.53062
C         48.91670        39.62119        -0.40125
C         50.09866        41.80380        -0.32905
C         48.85219        42.46590        -0.87118
C         50.13999        44.49252        -1.63828
C         48.87575        43.79801        -1.29902
C         50.11924        45.97420        -1.80722
C         48.92515        46.64557        -1.92270
C         50.24838        48.83357        -1.73090
C         48.93370        48.18329        -2.13593
C         50.28079        50.16821        -1.31960
C         49.13039        50.78079        -0.60772
C         50.16211        53.07293        -1.08583
C         49.08494        52.25814        -0.39068
C         50.21990        54.46200        -0.50838
C         49.10539        55.02865         0.04059
C         52.51875        20.61386         0.94116
C         51.23739        21.22791         1.09435
C         52.39486        23.22047         1.98435
C         51.17343        22.57134         1.52155
C         52.36904        24.79818         2.11777
C         51.13435        25.47777         1.71894
C         52.42447        27.59768         1.64136
C         51.18185        26.88576         1.50321
C         52.44204        29.01613         1.46169
C         51.25656        29.72391         1.09774
C         52.55066        31.79861         0.98358
C         51.32382        31.10270         0.74601
C         52.69270        33.21490         0.69160
C         52.09853        33.81671        -0.38166
C         52.74417        36.08818         0.25549
C         52.11715        35.23887        -0.59317
C         52.51898        37.55877         0.42078
C         51.42922        38.14180        -0.47664
C         52.55794        40.40495         0.12612
C         51.40520        39.62542        -0.51425
C         52.60323        41.80807        -0.44031
C         51.41933        42.42826        -0.72868
C         52.64570        44.61940        -0.98330
C         51.43317        43.78228        -1.33978
C         52.71492        45.92377        -1.74419
C         51.42446        46.66487        -2.02922
C         52.71173        48.80974        -1.83963
C         51.47243        48.14116        -1.93870
C         52.72955        50.23663        -1.63417
C         51.50409        50.91269        -1.34902
C         52.69278        53.01980        -1.13910
C         51.48983        52.32817        -1.12877
C         53.69277        21.28530         1.22112
C         54.88133        23.32371         2.05418
C         53.68899        22.59490         1.76279
C         54.86579        24.75661         2.16881
C         53.65177        25.48702         2.04538
C         54.87041        27.62453         2.11787
C         53.64560        26.90293         1.90863
C         54.84386        29.03181         2.07619
C         53.66598        29.72747         1.68053
C         54.89331        31.88537         1.86957
C         53.68609        31.14691         1.54343
C         54.85508        33.35134         1.97196
C         53.63893        34.04474         1.47992
C         55.02031        36.22281         1.19726
C         53.71886        35.51248         1.20788
C         55.03884        37.57338         0.66676
C         53.85279        38.27403         0.35217
C         55.09196        40.31571        -0.15901
C         53.87293        39.65276         0.03976
C         55.11240        41.72778        -0.51410
C         53.89743        42.46190        -0.65983
C         55.17058        44.50839        -1.17352
C         53.93887        43.83026        -0.99992
C         55.20428        45.94823        -1.43824
C         53.97293        46.68658        -1.60773
C         55.23454        48.76978        -1.96504
C         53.95581        48.05965        -1.81979
C         55.24359        50.31543        -1.87489
C         53.94685        50.98417        -1.60226
C         53.91020        52.34968        -1.34179
C         57.30886        23.33092         2.29888
C         56.13080        22.64559         2.13875
C         57.33796        24.75523         2.33836
C         56.11175        25.46697         2.26801
C         57.33890        27.58945         2.43385
C         56.11128        26.90360         2.31273
C         57.35176        29.04654         2.63443
C         56.04062        29.79774         2.45758
C         57.35086        31.95009         2.23259
C         56.08650        31.24647         2.19477
C         57.40293        33.33889         1.96881
C         56.17075        34.13769         1.97933
C         57.47021        36.13625         1.16797
C         56.19356        35.53237         1.46870
C         57.50110        37.51437         0.71234
C         56.29833        38.23454         0.50177
C         57.56923        40.23477        -0.15816
C         56.32722        39.59620         0.03511
C         57.62574        41.57425        -0.85772
C         56.34636        42.38552        -0.72643
C         57.68433        44.41667        -1.24131
C         56.37291        43.75676        -1.04055
C         57.70046        45.90867        -1.41885
C         56.42279        46.63806        -1.48817
C         57.69475        48.76496        -1.58357
C         56.48312        48.05613        -1.66870
C         57.66613        50.19279        -1.45414
C         56.50639        50.91546        -1.46010
C         59.83069        24.78891         2.51042
C         58.59149        25.46658         2.42872
C         59.82168        27.61713         2.52121
C         58.58372        26.89465         2.45029
C         59.82478        29.07741         2.45320
C         58.61318        29.79526         2.46150
C         59.83263        31.91858         2.21120
C         58.59149        31.21294         2.31872
C         59.85148        33.32597         1.95816
C         58.63471        34.01685         1.73825
C         59.95353        35.93758         0.77480
C         58.64644        35.39597         1.31030
C         59.97703        37.44109         0.61635
C         58.75216        38.16419         0.50148
C         60.03952        40.22203         0.03187
C         58.77552        39.54832         0.12817
C         60.05811        41.67457        -0.14777
C         58.87999        42.35603        -0.52367
C         60.09109        44.48314        -0.49336
C         58.90920        43.74765        -0.72400
C         60.11926        45.99656        -0.51359
C         58.92352        46.66276        -1.13712
C         60.21047        48.70440        -1.38297
C         58.95156        48.04890        -1.34625
C         61.01939        25.49554         2.61316
C         61.01881        26.89567         2.61269
C         61.04299        29.80545         2.36499
C         61.04590        31.17721         2.26687
C         61.07962        34.10071         1.99714
C         61.12609        35.36832         1.53373
C         61.17859        38.10205         0.40583
C         61.21276        39.48751         0.16052
C         61.22735        42.41879         0.09596
C         61.23425        43.80012        -0.05421
C         61.39958        46.61847        -0.99811
C         61.40929        47.94924        -1.32458
O         42.32198        44.21563        -3.28720
O         45.36257        27.54071         2.15883
O         49.57316        51.38183         0.66312
O         41.18028        35.54318        -2.95002
O         37.83431        54.20958        -0.93715
O         35.58287        42.17758        -2.85552
O         33.16364        35.65429        -3.13981
O         30.31481        33.20267         0.40437
O         51.21931        33.14310        -1.23512
O         53.09565        35.01644         2.45392
O         44.91698        28.97118        -1.32543
O         51.82615        38.84643        -1.68734
O         41.44482        30.42529         1.01358
O         23.01545        29.21755        -1.08906
O         41.38665        22.95228         1.88778
O         31.79717        33.38326        -3.06234
O         55.29503        49.62314        -3.15503
O         40.63523        23.73802        -1.53766
O         42.27816        48.02940         0.46937
O         40.97890        39.66103        -3.07887
O         57.87693        44.96455        -2.59025
O         28.49718        22.51222        -3.40400
O         44.23109        22.82832         2.61976
O         23.13442        33.54100        -0.20958
O         51.25003        35.63673        -1.60578
O         52.19549        46.00574        -3.09540
O         28.85028        47.00615        -0.65483
O         30.23419        49.61806        -0.95885
O         39.38182        44.41136        -3.27569
O         46.36092        47.63039        -2.91582
O         46.85693        40.03406         0.90881
O         47.80087        36.91589        -2.11913
O         46.19892        54.69167         2.01835
O         50.92653        43.79551        -2.69720
O         52.24227        23.90802         3.25925
O         56.55780        29.46609         3.79802
O         55.38255        33.91149         3.19976
O         27.09172        24.97720        -3.30319
O         37.32145        22.68196        -2.20874
O         47.29924        49.86188         0.80524
O         28.96020        29.54894        -3.23390
H         28.07782        29.90243        -3.48048
O         60.06716        35.41125        -0.59947
H         60.08728        34.43267        -0.53358
O         27.71165        42.00374         3.35334
H         27.01290        42.34323         3.95389
O         48.60033        31.64299         2.25264
H         49.30904        31.21046         2.77461
O         35.92403        31.39741         0.61685
H         36.58697        31.07666         1.26382
O         52.25238        40.51991         1.55425
H         52.14370        39.59636         1.90673
O         36.27543        25.11569         1.06093
H         35.47039        25.62370         1.30098
O         26.43463        46.11302        -0.22390
H         27.13890        46.49684        -0.80451
O         35.78468        31.17044        -3.02504
H         35.15874        31.54190        -3.68123
O         23.92538        41.33652         4.58155
H         23.79359        42.25979         4.88570
O         57.71985        41.25213        -2.28839
H         57.76356        42.10029        -2.78093
O         28.97937        26.79529        -3.28145
H         29.04787        27.76212        -3.50014
O         52.44421        45.03010         0.40768
H         52.41499        44.22178         0.96390
O         41.18668        16.38157         1.99499
H         40.50160        17.03818         2.28209
O         25.02160        36.18419        -0.92104
H         24.51197        35.39557        -1.21134
O         25.19842        40.33554         0.03152
H         25.06873        39.46485        -0.40453
O         45.36798        52.23993         2.10719
H         45.98168        52.81415         2.62218
O         39.86368        57.37666        -0.35511
H         40.49898        57.94292        -0.84086
O         28.86958        24.91049        -0.11811
H         29.70704        25.13354         0.34021
O         31.42173        21.57326         0.42673
H         31.39772        20.81441         1.04597
O         41.12441        38.40434         0.29759
H         41.23271        37.56598         0.79431
O         48.68197        37.98706         1.30722
H         48.00311        38.65580         1.57685
O         49.71495        53.19492        -2.47643
H         50.40940        53.67161        -2.97778
O         48.85932        48.41323        -3.56437
H         47.99598        48.05081        -3.87181
O         60.03109        46.36075         0.93396
H         60.15183        47.33373         0.98882
O         42.43836        28.64582        -2.01561
H         43.31856        28.40759        -2.38711
O         37.60317        49.16076        -2.57339
H         36.75961        49.64968        -2.68376
O         46.21021        20.91513         3.01781
H         45.45531        21.48201         3.31526
O         28.43383        46.13489         2.86971
H         29.27316        45.70287         3.13411
O         32.60812        28.85496         0.69013
H         32.66654        29.80096         0.94688
O         50.00284        42.01275         1.11877
H         50.74982        41.50492         1.53600
O         32.19053        38.22983        -3.21470
H         32.65969        37.71234        -3.90588
O         31.86128        21.73813        -3.19214
H         31.74668        22.46524        -3.83889
O         32.18759        46.66296         2.10147
H         32.56319        45.79307         2.35810
O         27.75639        27.05477         0.22386
H         28.55104        27.45506         0.63425
O         26.33655        27.36564        -3.11937
H         26.83932        26.78370        -3.74109
O         38.77827        34.89987        -3.47381
H         39.68810        34.88127        -3.85748
O         51.98983        37.75659         1.77755
H         52.34206        37.04668         2.36163
O         39.91370        55.98139         3.01224
H         39.27235        55.43322         3.50988
O         39.79067        18.77235         2.01864
H         40.40925        19.40040         2.45351
H         23.10967        23.26063        -0.55016
H         21.31040        24.28750         0.75620
H         21.28810        26.73217         1.17859
H         21.47500        28.58915         1.81117
H         21.54422        30.98263         2.19053
H         21.66419        32.82480         2.71520
H         21.86759        35.15862         3.29858
H         21.66792        37.08298         3.33535
H         21.75594        39.48295         3.84291
H         21.38818        41.45787         2.96452
H         21.33272        43.89304         2.89788
H         21.37490        45.77175         3.52265
H         23.17974        49.52553         2.47300
H         21.25513        48.22350         3.29004
H         24.44348        22.46805        -1.53288
H         24.80704        50.52783         2.26556
H         26.43561        21.25199        -2.10742
H         26.80719        51.79499         1.71474
H         30.21669        19.20335        -0.93822
H         28.26567        20.24922        -1.90593
H         30.61474        53.82739         1.86083
H         28.55153        52.57116         2.06155
H         31.87218        18.27311        -0.78566
H         32.14073        54.87291         1.46940
H         33.95835        17.02752        -0.64964
H         34.23462        56.09690         1.48261
H         37.77062        14.90061        -0.63915
H         35.65422        16.08200        -0.85523
H         38.00208        57.90141         2.54247
H         35.89188        56.83185         2.09790
H         39.49745        14.13784        -1.01911
H         39.55441        59.15825         1.78808
H         43.73770        14.17253        -0.38526
H         41.66592        12.97927        -0.97217
H         43.84496        59.09152         1.50808
H         41.74063        60.26281         2.03904
H         45.27906        15.02566         0.45441
H         45.33819        58.24250         0.52039
H         47.32832        16.31759         0.71064
H         47.42094        57.07268         0.05790
H         50.94098        18.60808         0.31507
H         48.85298        17.36135         0.19859
H         51.12377        55.07611        -0.62254
H         49.16069        56.07383         0.37901
H         52.58432        19.58514         0.56379
H         52.72155        54.10791        -0.99633
H         54.64868        20.77697         1.03461
H         54.83682        52.93877        -1.33783
H         58.24154        22.75840         2.37923
H         56.15263        21.54817         2.10385
H         58.59720        50.71173        -1.18717
H         56.52644        51.95958        -1.11841
H         59.86923        23.69224         2.50366
H         60.27387        49.77506        -1.61555
H         61.97268        24.95450         2.68796
H         61.98168        27.41662         2.68984
H         62.00495        29.27727         2.36451
H         62.00744        31.70111         2.18539
H         61.96914        33.66381         2.47304
H         62.06037        35.94213         1.61133
H         62.12922        37.55248         0.43436
H         62.19049        39.97451         0.04636
H         62.14357        41.91585         0.43289
H         62.14966        44.35872         0.18318
H         62.33985        46.05145        -0.95943
H         62.35863        48.44683        -1.57104
