         320
 CSIRO Nanostructure Databank - Neutral Graphene Oxide Data Set
C         30.43347        32.18098        -1.10752
C         30.35362        33.28804        -0.51895
C         30.55213        35.81608         1.36433
C         30.59778        37.00944         1.62516
C         30.49568        39.84410         0.71986
C         30.46682        40.90021         0.05897
C         32.99518        29.80942        -2.51424
C         31.81917        30.21550        -2.12186
C         32.66752        31.75509        -0.40328
C         31.48316        31.26822        -1.31189
C         32.79458        33.26877        -0.45105
C         31.55622        34.18149        -0.27554
C         32.96755        35.63037         1.35018
C         31.61580        34.78981         1.14380
C         33.00275        37.11228         1.74102
C         31.65928        37.92430         2.11718
C         32.85460        40.14276         1.16832
C         31.59401        39.32472         1.52663
C         32.77628        41.36193         0.31478
C         31.56021        41.74359        -0.30392
C         32.71586        43.61885        -1.25709
C         31.67908        42.96159        -1.05093
C         35.51392        27.61246        -0.94687
C         35.00776        28.62076        -1.78319
C         34.01299        29.63844        -1.40028
C         35.17798        31.57001         0.38980
C         33.99378        30.92467        -0.49855
C         35.19572        33.12403         0.27531
C         33.99332        33.85743        -0.27089
C         35.36866        35.91095         0.51901
C         34.20618        34.96038         0.75832
C         35.14031        37.39760         0.33332
C         34.31479        37.96549         1.55068
C         35.29031        40.15701         0.88529
C         34.15826        39.46394         1.24937
C         35.22775        41.51882         0.37963
C         34.00634        42.11334         0.10494
C         35.20178        44.19397        -0.89336
C         33.90684        43.62702        -0.31074
C         35.40097        45.66656        -0.85692
C         37.78542        27.41627         0.05283
C         36.46689        27.01757        -0.37499
C         37.87287        28.80247         0.12729
C         36.73413        29.60529         0.54892
C         37.64856        31.57010        -0.63829
C         36.53921        30.91418         0.13144
C         37.68589        33.06877        -0.71644
C         36.45276        33.78226        -0.27968
C         37.69919        35.98219        -0.72885
C         36.59837        35.24242         0.02613
C         37.73110        37.43590        -0.23616
C         36.48390        38.11637         0.21715
C         37.85755        40.16694         0.66166
C         36.60929        39.39992         1.06353
C         37.75000        41.64563         0.64269
C         36.52953        42.16683        -0.09416
C         37.73543        44.46574        -0.18260
C         36.43629        43.70590         0.01759
C         37.69678        45.99910        -0.03171
C         36.42989        46.34794        -0.80768
C         40.06602        24.97705         1.78010
C         39.31298        25.56896         1.00726
C         40.30885        27.45170         0.07795
C         39.05621        26.58881        -0.07899
C         40.28115        28.96680         0.25249
C         39.08134        29.39244        -0.57327
C         40.22544        31.64166        -1.28489
C         38.93852        30.85818        -0.90597
C         40.28134        33.02465        -0.56428
C         38.98137        33.82611        -0.66266
C         40.25576        35.93687        -0.36448
C         38.99844        35.19323        -0.55917
C         40.25618        37.31945        -0.13582
C         39.01525        38.00813         0.36563
C         40.26735        40.30735        -0.06087
C         38.99666        39.52977         0.29547
C         40.26842        41.68664         0.52744
C         39.00896        42.41910         0.56899
C         40.31963        44.53152        -0.00879
C         39.02131        43.72637        -0.28015
C         40.24366        46.03659         0.22429
C         38.98300        46.57273        -0.62268
C         40.23633        48.74601        -0.54213
C         39.22104        48.04231        -0.58675
C         42.46606        25.03989         2.17284
C         41.19328        24.49092         2.50473
C         42.64687        27.61281         0.71228
C         41.52382        26.84998         0.05943
C         42.75038        28.94656         0.01944
C         41.58111        29.57995        -0.25027
C         42.84513        31.62935        -1.04106
C         41.54516        30.86844        -1.00115
C         42.80817        33.11977        -0.99494
C         41.48073        33.87190        -1.10458
C         42.69189        35.81107         0.12496
C         41.47793        35.21001        -0.40297
C         42.74664        37.33159         0.20080
C         41.54111        38.10438        -0.30903
C         42.80423        40.22129         0.35021
C         41.49007        39.48155         0.41056
C         42.80456        41.72507         0.29788
C         41.53947        42.38725         0.91574
C         42.76141        44.68506         1.02179
C         41.55652        43.86818         0.51540
C         42.79200        46.09251         0.45610
C         41.58775        46.73403        -0.18384
C         42.87998        48.79287        -0.34063
C         41.52092        48.34050         0.10147
C         43.43455        25.67724         1.74999
C         45.07952        27.70066         1.36294
C         43.95265        26.78025         0.84719
C         45.26630        28.96233         0.46589
C         44.10213        29.46475        -0.40173
C         45.36678        31.60551        -0.86389
C         44.06089        31.00498        -0.33638
C         45.28615        33.10916        -0.75030
C         43.98155        33.78110        -0.74803
C         45.28162        35.84252         0.12520
C         43.99423        35.09811        -0.04302
C         45.28565        37.29107         0.66458
C         44.07416        38.01934         0.07219
C         45.35424        40.17684         0.63368
C         44.06131        39.53966         0.11489
C         45.39433        41.71587         0.38169
C         44.07993        42.40182         0.88113
C         45.35874        44.65067         0.92405
C         44.07879        43.93650         0.50124
C         45.35671        46.10017         0.53311
C         44.08463        46.89061         0.70369
C         43.90443        48.15346        -0.08711
C         47.47323        27.78174         1.37537
C         46.45103        27.06115         1.45792
C         47.73701        29.05901         0.84560
C         46.49884        29.63246         0.35966
C         47.68683        31.78497         0.04175
C         46.57706        31.01948        -0.15052
C         47.71186        33.26899        -0.19397
C         46.42695        33.84113        -0.68023
C         47.69859        36.01535        -0.65548
C         46.36191        35.34269        -0.81520
C         47.78885        37.31844        -0.29297
C         46.70877        38.04144         0.52595
C         47.89304        40.24576         0.35058
C         46.60400        39.50816         0.00073
C         47.91908        41.57002         0.63320
C         46.65247        42.30040         1.07568
C         47.92336        44.51136         0.41543
C         46.68394        43.84924         0.93651
C         47.73011        45.85412         0.26650
C         46.63897        46.54005         0.39514
C         50.24698        29.39956         1.45264
C         49.04783        29.74152         0.58004
C         50.19842        32.06072         0.47398
C         48.90703        31.28090         0.78155
C         50.20792        33.25360        -0.29089
C         48.94116        33.69825        -1.04866
C         50.14056        35.98337        -1.49665
C         48.87339        35.26577        -1.21214
C         50.18236        37.53017        -1.27047
C         49.15367        37.97625        -0.18287
C         50.44340        40.02507         0.58806
C         49.16679        39.57226        -0.14690
C         50.52229        41.57031         0.68991
C         49.19619        42.36695         0.83823
C         50.44003        44.26628        -0.02580
C         49.06429        43.66813        -0.09928
C         51.21461        30.17686         1.48628
C         52.56834        32.30540         0.79763
C         51.42025        31.52476         1.02116
C         52.46691        33.35852         0.08893
C         51.40580        33.97762        -0.56072
C         52.55769        36.00990        -1.55142
C         51.42518        35.04060        -1.64755
C         52.55552        37.19985        -1.22415
C         51.54019        38.13046        -0.82551
C         52.75200        40.21302        -0.08619
C         51.64543        39.32057        -0.17219
C         52.92304        41.44852        -0.07749
C         51.85642        42.32672         0.43299
C         51.53368        43.69455         0.02592
O         48.93824        33.12612        -2.29829
O         51.45622        41.99025         1.77023
O         33.61061        29.58587        -0.01573
O         47.25349        38.13661         1.81813
O         41.37640        44.10337        -0.92287
O         46.06596        44.40414         2.15488
O         37.92150        30.97139        -1.96261
O         44.85320        34.90906         1.15347
O         33.18542        36.04614         2.71808
O         36.68624        33.53496        -1.69078
O         42.51179        36.56637         1.38946
O         36.82478        39.09152         2.41079
O         38.20177        42.42119         1.80608
O         32.11153        40.30150         2.45584
O         44.21102        38.74572        -1.14918
O         36.48598        35.61999         1.42747
O         34.84847        33.83444         1.56421
O         49.19656        35.68312        -2.57861
O         42.39678        30.87804        -2.20596
O         36.98893        38.31835        -1.14473
O         39.09749        25.89492        -1.34341
H         39.12919        26.60133        -2.03090
O         32.20938        31.50043         0.94723
H         32.01914        30.53785         1.01137
O         49.14018        42.88372         2.18189
H         50.07158        42.93483         2.51114
O         41.73684        38.25897        -1.72569
H         41.05429        38.87609        -2.07696
O         35.05763        37.83797         2.75537
H         35.52372        36.97330         2.78489
O         31.61477        35.26016        -1.18704
H         31.43068        34.93144        -2.09067
O         44.11080        44.13389        -0.92322
H         43.32643        43.69031        -1.32704
O         41.23676        39.24895         1.83453
H         41.97905        38.71476         2.19891
O         44.38646        26.24040        -0.38028
H         43.65541        25.72075        -0.78130
O         50.45952        39.56526         1.93461
H         51.14274        40.08282         2.41567
O         39.13615        43.16641        -1.63132
H         39.16332        43.93941        -2.24351
O         37.52780        46.40192         1.30820
H         36.75203        45.90756         1.66315
O         41.26716        34.19501        -2.49582
H         40.68473        33.50120        -2.89697
O         41.53782        42.32986         2.35196
H         41.58079        41.38722         2.62416
O         41.73618        46.64630        -1.62565
H         42.13947        45.77023        -1.82614
O         44.32737        28.97301        -1.73309
H         44.85202        29.64721        -2.23464
O         39.10851        46.07801        -1.94962
H         39.95858        46.43847        -2.30788
O         46.55875        39.50285        -1.43344
H         46.27340        40.41035        -1.71174
O         35.32112        43.74355        -2.23903
H         35.92033        44.34962        -2.72277
O         41.04556        23.56505         3.45153
H         41.90200        23.33738         3.86525
O         45.48854        31.29621        -2.27868
H         46.34218        31.66218        -2.60014
O         38.97156        37.61709         1.76617
H         39.62528        38.17816         2.24749
O         49.37653        29.48993        -0.78168
H         49.48186        28.52552        -0.91516
O         40.51987        32.71091         0.82242
H         40.49307        33.53878         1.34836
O         48.77920        43.23992        -1.42022
H         48.62344        44.02308        -1.98702
O         41.71837        25.59316        -0.42015
H         40.88080        25.30710        -0.86551
O         31.59831        33.77970         2.11139
H         31.71452        34.19864         2.99052
O         37.39480        35.98973        -2.13196
H         37.14159        36.90729        -2.38359
O         49.90330        38.09295        -2.54670
H         49.44083        37.40367        -3.08151
O         36.04412        44.00535         1.38281
H         36.71702        43.58023         1.97226
O         43.98389        42.26353         2.28435
H         44.88796        42.30963         2.68940
O         33.56158        44.37815         0.82527
H         32.75618        44.00148         1.23515
O         42.76512        41.93927        -1.15401
H         41.96670        41.46057        -1.50652
O         49.31471        40.12818        -1.46167
H         48.50221        39.91195        -1.97454
O         45.89093        35.65701        -2.15316
H         46.63062        35.49546        -2.77859
O         44.03269        47.26035         2.10240
H         43.23015        47.82200         2.22587
O         35.25480        28.53136        -3.10009
H         35.76178        27.72332        -3.31337
O         39.20399        28.71770        -1.86370
H         38.72404        29.28333        -2.51474
O         49.65926        37.44568         1.04547
H         48.94720        37.63329         1.72298
O         45.00366        37.21151         2.05834
H         45.87752        37.37411         2.51238
O         34.35839        37.62087        -0.84939
H         34.97370        37.87459        -1.57384
O         47.91988        33.90970         1.10898
H         47.04091        34.11101         1.50278
O         40.14566        31.85211        -2.70182
H         40.96054        31.45798        -3.10345
O         48.61426        31.46919         2.18724
H         48.54222        32.44229         2.32881
O         42.18118        27.87168         2.07573
H         42.95644        28.21403         2.59126
O         40.35181        40.49799        -1.51901
H         39.71717        41.22302        -1.75603
O         35.90194        28.97483         1.39100
H         35.19638        29.60756         1.69026
O         36.75354        41.72219        -1.44852
H         36.09160        42.16764        -2.03518
O         44.72027        28.14239         2.67981
H         45.40814        28.76526         2.99930
O         40.02918        29.39155         1.59903
H         40.74929        29.00147         2.15584
O         46.58870        42.03949         2.49255
H         47.41661        42.41505         2.88021
O         43.96209        31.31952         1.06963
H         44.04028        32.29191         1.18550
O         31.61321        38.01954         3.52131
H         31.90408        38.92278         3.78163
O         34.78663        31.27896         1.73990
H         33.85258        31.59788         1.85045
O         45.36203        39.93102         2.03810
H         46.17590        39.39355         2.26889
O         40.03781        46.20251         1.61654
H         40.07767        47.15852         1.84411
O         42.75290        44.74536         2.44448
H         43.46418        45.35841         2.73950
O         41.43907        48.55805         1.50065
H         41.28020        49.51194         1.66354
O         51.35903        34.37394        -2.88597
H         50.49506        33.86876        -2.91348
O         45.55028        41.94284        -1.02892
H         44.65508        41.93343        -1.44638
