         277
 CSIRO Nanostructure Databank - Neutral Graphene Oxide Data Set
C         30.66384        31.99437         1.66616
C         30.60904        33.22265         1.47564
C         30.57198        36.25916         0.53978
C         30.54485        37.51369         0.57349
C         30.79834        40.69669         0.28935
C         30.41838        41.75566         0.81440
C         32.96375        29.12216         1.33873
C         31.84513        29.68703         1.61139
C         32.90963        31.73739         0.89637
C         31.72805        31.06241         1.46934
C         32.85836        33.10945         0.53804
C         31.51132        33.83923         0.41797
C         32.79805        35.95097        -0.05811
C         31.64554        35.32937         0.42434
C         32.76221        37.35161        -0.54945
C         31.49872        38.26000        -0.25093
C         32.83013        40.27012        -0.79671
C         31.66541        39.72510        -0.26684
C         32.88339        41.69429        -1.17290
C         30.48602        43.11999         1.14935
C         32.75316        43.98401         0.17602
C         31.66985        43.78434         0.70869
C         35.40851        27.37856         0.28853
C         35.45930        28.77294         0.85615
C         34.18080        29.55149         0.88165
C         35.30812        31.66874         0.28749
C         34.13084        30.98830         0.66373
C         35.29549        33.08996         0.17430
C         34.04732        33.81431         0.21457
C         35.28628        35.92324        -0.22864
C         34.05499        35.22391        -0.07253
C         35.34317        37.32709        -0.54849
C         34.06491        38.01309        -0.88811
C         35.38046        40.21975        -0.60024
C         34.08257        39.51052        -1.01171
C         35.34221        41.72607        -0.79831
C         34.15472        42.39278        -0.91091
C         35.21964        44.41632         0.07277
C         33.98720        43.89815        -0.67404
C         35.43046        45.89390         0.07966
C         37.72202        27.21412        -0.57190
C         36.35918        26.75569        -0.18076
C         37.67611        28.75866        -0.39853
C         36.59007        29.43888         0.03899
C         37.81863        31.60176        -0.15201
C         36.48111        30.90876        -0.30783
C         37.79314        33.03050         0.35508
C         36.51904        33.80249         0.06575
C         37.72955        35.99053         0.11796
C         36.52653        35.21448        -0.04055
C         37.72767        37.37858        -0.07298
C         36.55291        38.03543        -0.56899
C         37.96018        40.24867        -1.02236
C         36.59812        39.46874        -1.19225
C         37.85222        41.77490        -0.78682
C         36.59473        42.47733        -0.73462
C         37.73525        44.67089        -0.78034
C         36.53327        43.85794        -0.54810
C         37.74993        46.18575        -0.58732
C         36.40557        46.59640        -0.16904
C         40.05541        24.53632         0.40252
C         39.04118        25.23082         0.34649
C         40.18841        27.31485         0.03800
C         38.79961        26.69174         0.36823
C         40.21284        28.72080        -0.15270
C         38.98177        29.45251        -0.77381
C         40.32041        31.61015        -0.56260
C         38.96679        30.93413        -0.41412
C         40.29535        33.11102        -0.31133
C         39.00534        33.81947        -0.07010
C         40.28926        35.98203         0.35124
C         38.99136        35.24851         0.38220
C         40.26215        37.48290         0.36183
C         38.94150        38.18992         0.22334
C         40.23175        40.38747        -0.00725
C         38.86252        39.71260         0.09929
C         40.26654        41.76133        -0.22754
C         39.02325        42.46878        -0.49565
C         40.28198        44.68029        -0.12525
C         39.09298        43.93124        -0.63500
C         40.27646        46.05165         0.03064
C         39.03413        46.86739        -0.23353
C         40.11766        48.72748         0.97897
C         39.16320        48.16526         0.43290
C         42.63035        24.50387         0.60914
C         41.39847        25.00576        -0.07743
C         42.60355        27.29029         0.40433
C         41.39426        26.58692         0.17796
C         42.64113        28.71109         0.32608
C         41.43564        29.40228         0.02613
C         42.70009        31.62235         0.44882
C         41.42273        30.88109         0.17846
C         42.71535        33.10676         0.30202
C         41.56949        33.78971         0.03821
C         42.82647        36.02533         0.25743
C         41.56120        35.27548        -0.01071
C         42.76287        37.48142         0.45591
C         41.53587        38.18908        -0.05893
C         42.79149        40.38679         0.12411
C         41.49134        39.66688         0.27829
C         42.76621        41.79434        -0.46304
C         41.48753        42.51493        -0.15534
C         42.71151        44.50228         0.56253
C         41.50114        43.90010         0.09777
C         42.61953        45.86101         1.14517
C         41.41437        46.70972         0.75511
C         42.67001        48.62882         1.60157
C         41.53483        48.29288         0.68707
C         43.66055        25.14703         0.81363
C         45.15548        27.33319         0.79795
C         43.84549        26.59534         0.88272
C         45.12568        28.72059         0.25859
C         43.92280        29.43147         0.29038
C         45.16334        31.59055         0.14982
C         43.97275        30.88394         0.27709
C         45.26277        33.00766         0.60475
C         43.97944        33.79025         0.70716
C         45.29592        35.92163         0.16228
C         44.04057        35.31421         0.83901
C         45.33015        37.43519         0.39748
C         44.03366        38.20628         0.49227
C         45.29711        40.40928         0.30714
C         44.06223        39.57752        -0.15406
C         45.29930        41.78283        -0.45345
C         44.02653        42.54260        -0.11989
C         45.23766        44.41469         1.03884
C         43.96679        43.79744         0.45973
C         45.13862        45.94390         1.14157
C         43.91591        46.45711         1.82158
C         43.66511        47.92403         1.77137
C         47.45220        27.33671         0.14939
C         46.49291        26.73149         0.64999
C         47.66898        28.69413        -0.23672
C         46.33456        29.35718        -0.28336
C         47.68365        31.59033        -0.32367
C         46.36811        30.91882        -0.33285
C         47.67102        33.11032        -0.32598
C         46.64197        33.69903         0.66251
C         47.78968        35.90440         0.38037
C         46.61645        35.22283         0.46933
C         47.76774        37.42046         0.63253
C         46.58307        38.13742        -0.11306
C         47.82514        40.35082        -0.09918
C         46.57482        39.62490         0.16500
C         47.85671        41.82710        -0.32396
C         46.56581        42.59527        -0.23391
C         47.85297        44.64560         0.80482
C         46.52977        43.96371         0.34654
C         47.53999        46.14082         0.52784
C         46.38769        46.49443         0.96043
C         50.15467        28.84524        -0.29754
C         48.82575        29.39823        -0.45826
C         50.13828        31.58927        -0.75679
C         48.83724        30.86932        -0.51543
C         50.16445        33.05645        -0.47833
C         49.04768        33.73225        -0.09744
C         50.29504        35.91484        -0.10631
C         49.11725        35.14916         0.50429
C         50.28432        37.43180        -0.14366
C         49.10106        38.17743         0.39714
C         50.38962        40.43493        -0.02066
C         49.12214        39.67108         0.21498
C         50.40902        41.79749        -0.03076
C         49.14934        42.60002        -0.20999
C         50.45327        44.50844         0.45817
C         49.08772        44.09551         0.11045
C         51.24066        29.43678        -0.16993
C         52.59274        31.65870        -0.21059
C         51.53952        30.78844         0.30566
C         52.59775        32.85196        -0.51902
C         51.48319        33.80561        -0.86238
C         52.66305        36.04565        -0.75381
C         51.63922        35.12158        -0.10168
C         52.56680        37.29469        -0.59960
C         51.55915        38.19606        -0.28816
C         52.76880        40.47625        -0.36499
C         51.69510        39.59604         0.22383
C         52.81848        41.71124        -0.35783
C         51.77023        42.52237         0.35373
C         51.54516        43.98840         0.17231
O         34.06690        38.67312        -2.19402
O         42.36715        35.73066        -1.13271
O         44.89980        37.97493         1.66925
O         31.93023        42.27892        -1.70051
O         47.90570        40.93546        -1.49166
O         42.24986        40.16779         1.44314
O         49.09779        43.65131        -1.25109
O         39.73345        35.46327         1.61224
O         44.56572        33.15710         1.90168
O         39.57354        37.95108         1.54334
O         38.49374        46.89095        -1.58143
O         49.95380        36.59694        -1.32626
O         38.53595        44.32439        -1.93274
O         41.77004        31.24442         1.54208
O         49.31040        39.05566         1.54642
O         46.47795        43.79787        -1.08885
O         31.72742        37.62684        -1.52896
O         46.12566        30.09340        -1.51759
O         41.51305        46.10702         2.08905
O         44.44939        27.17620         2.05184
O         38.44598        27.13704         1.68408
H         39.03624        26.70064         2.33410
O         43.88868        45.99262         3.17853
H         42.97429        46.15278         3.51020
O         47.23051        33.53370        -1.63688
H         47.86974        33.20762        -2.30478
O         50.58375        31.34826        -2.07815
H         50.60029        30.37870        -2.23432
O         39.17509        29.35233        -2.19678
H         39.06456        28.40153        -2.43954
O         47.16080        33.42754         1.98854
H         46.39991        33.46935         2.61335
O         46.76367        37.90377        -1.52827
H         46.18028        38.53780        -2.00638
O         38.67519        40.05931        -2.26191
H         39.54513        40.51068        -2.19964
O         36.18854        30.90169        -1.74604
H         36.18363        31.83049        -2.06099
O         30.97602        33.50654        -0.86757
H         30.19463        34.07305        -1.04008
O         45.30622        41.50307        -1.87440
H         45.78928        42.23621        -2.31706
O         52.01641        34.81155         1.22003
H         52.07844        35.63363         1.74882
O         44.02537        35.63275         2.23416
H         44.32736        34.84206         2.73573
O         48.05587        44.42734         2.18201
H         47.17870        44.46492         2.64054
O         51.32257        30.93348         1.65024
H         51.75550        31.74845         1.97572
O         51.92968        39.51970         1.62189
H         51.98779        40.44707         1.96524
O         37.90019        32.94570         1.80595
H         37.08433        32.52812         2.15395
O         51.40853        34.05923        -2.24330
H         51.31985        33.19551        -2.70390
O         41.50483        24.83480        -1.46184
H         41.44892        23.88230        -1.67975
O         45.10121        35.71319        -1.25319
H         45.81473        36.20362        -1.72944
O         38.22963        40.16460         1.33446
H         38.69304        39.69748         2.06918
O         41.52674        38.15835        -1.52058
H         42.44383        38.37516        -1.82953
O         47.47572        37.47681         2.03420
H         47.95719        38.24763         2.41893
O         35.44040        40.06451         0.84436
H         36.37368        40.22752         1.14497
O         35.94073        28.69051         2.19483
H         36.74764        28.12082         2.19344
O         45.38697        43.92603         2.40281
H         44.72108        44.39735         2.96724
O         44.12602        39.25921        -1.56598
H         44.07460        40.11759        -2.06587
O         40.72696        31.45207        -1.94348
H         40.10397        31.97387        -2.49588
O         39.50374        33.71430        -1.42569
O         51.94867        42.28861         1.74895
H         52.67228        42.86365         2.07520
O         45.09978        40.76946         1.69292
H         45.01780        39.93119         2.20618
O         29.54793        43.76560         1.83940
H         28.79664        43.17796         2.05380
O         33.78617        44.59250        -1.89216
H         33.01024        44.18840        -2.34019
O         49.41143        34.99550         1.90726
H         48.66658        34.47382         2.29959
O         36.36525        39.33232        -2.59060
H         37.23592        39.32042        -3.04946
O         41.86767        48.63103        -0.62823
H         41.95004        49.60274        -0.71123
O         42.71994        41.56030        -1.92535
H         42.87195        42.42185        -2.36971
O         35.11277        43.91276         1.40119
H         35.83067        44.28759         1.95138
O         38.06769        26.88616        -1.91111
H         37.27838        27.01708        -2.47684
