         732
 CSIRO Nanostructure Databank - Neutral Graphene Oxide Data Set
C         23.68947        24.96446        -3.89973
C         22.54627        25.70714        -4.18824
C         23.50804        27.65816        -3.09194
C         22.44978        27.03532        -3.78292
C         23.40843        29.03902        -2.64804
C         22.20718        29.77290        -2.77030
C         23.22026        31.73103        -1.73637
C         22.10679        31.07249        -2.30269
C         23.11786        33.08152        -1.20491
C         21.85651        33.63964        -0.90727
C         22.94502        35.60017        -0.04769
C         21.76928        34.86318        -0.25994
C         22.98374        37.91670        -0.07145
C         21.85462        38.69878        -0.12219
C         23.05740        40.48565        -1.22592
C         21.88636        39.99036        -0.71206
C         23.14776        41.88529        -1.58048
C         22.00126        42.62945        -1.92811
C         23.27192        44.70613        -1.79003
C         22.07301        44.00255        -2.06996
C         23.28264        46.15935        -1.75199
C         22.14736        46.90920        -2.11427
C         23.26550        48.96445        -1.52011
C         22.14499        48.29772        -2.00719
C         26.09760        23.42193        -3.23810
C         25.95595        24.77202        -2.87225
C         24.77034        25.54536        -3.21118
C         25.80632        27.54516        -2.15331
C         24.69237        26.91292        -2.81594
C         25.74751        28.93050        -1.84107
C         24.53823        29.67426        -2.06580
C         25.62650        31.71956        -1.17020
C         24.45526        31.04060        -1.66046
C         25.57504        33.12536        -0.90155
C         24.30408        33.81365        -0.90804
C         25.41229        36.03714        -0.26048
C         24.20446        35.16310        -0.45832
C         25.39926        37.50049        -0.66078
C         24.25896        38.27459        -0.66891
C         25.56194        40.37609        -1.15961
C         24.27856        39.61110        -1.41250
C         25.57805        41.78439        -1.19068
C         24.40022        42.54901        -1.44497
C         25.66441        44.67404        -1.11104
C         24.44687        43.97949        -1.48332
C         25.64724        46.09781        -0.98037
C         24.45008        46.83591        -1.29541
C         25.60895        48.93900        -0.67273
C         24.42570        48.25258        -1.15806
C         25.58698        50.32268        -0.41362
C         28.25851        23.25470        -2.12754
C         27.24096        22.69403        -2.90418
C         28.12369        24.61495        -1.72031
C         27.00546        25.39001        -2.13333
C         28.07272        27.42212        -1.15255
C         26.96298        26.78789        -1.80366
C         28.02917        28.82006        -0.92891
C         26.87805        29.57146        -1.25304
C         28.00922        31.68661        -0.57940
C         26.82630        30.99396        -0.98405
C         27.95465        33.09954        -0.38710
C         26.74798        33.81453        -0.51221
C         27.96088        36.02916        -0.57378
C         26.71548        35.29457        -0.28715
C         27.99346        37.43294        -0.80251
C         26.69692        38.12166        -1.23324
C         27.97310        40.32960        -0.74665
C         26.75428        39.63564        -1.03653
C         28.00145        41.71038        -0.59232
C         26.90121        42.50330        -1.22361
C         28.03394        44.62423        -0.43962
C         26.84379        43.95594        -0.83876
C         28.03245        46.05058        -0.33712
C         26.83254        46.77951        -0.60134
C         28.00649        48.90389        -0.11008
C         26.81776        48.21294        -0.46205
C         27.96069        50.30604         0.10299
C         26.73469        50.98812        -0.01537
C         30.42841        20.29773        -1.00726
C         29.44337        20.99820        -1.62364
C         30.38257        23.08534        -0.82286
C         29.56306        22.48679        -1.93193
C         30.04434        24.29112        -0.29869
C         29.11774        25.23745        -0.87813
C         30.42426        27.35858        -0.26245
C         29.20080        26.63217        -0.68092
C         30.45798        28.76828        -0.27909
C         29.14076        29.48599        -0.14841
C         30.45501        31.65051        -0.20241
C         29.22257        30.97169        -0.36690
C         30.48148        33.07648        -0.14272
C         29.19844        33.79751        -0.05126
C         30.47134        35.93361        -0.65216
C         29.18152        35.32008        -0.25715
C         30.55198        37.44440        -0.67966
C         29.19891        38.12574        -0.75344
C         30.33385        40.16888         0.11537
C         29.30408        39.62553        -0.87304
C         30.36817        41.64392         0.44871
C         29.15098        42.42423         0.00960
C         30.43583        44.56119         0.16148
C         29.23106        43.89629        -0.12564
C         30.45496        46.00545         0.18454
C         29.24548        46.73595        -0.01089
C         30.45805        48.85693         0.25316
C         29.25435        48.16898         0.05744
C         30.48174        50.35407         0.06322
C         29.18358        51.03573         0.39855
C         30.40786        53.06182         1.01552
C         29.18999        52.35324         0.77854
C         32.84354        18.76557        -0.07089
C         32.77582        20.21755        -0.06737
C         31.65417        20.90278        -0.49011
C         32.90269        23.11807        -0.12492
C         31.67810        22.39078        -0.56300
C         32.94985        24.57464         0.07147
C         31.82169        25.34411         0.27663
C         32.91708        27.41017        -0.26468
C         31.69922        26.71721        -0.07934
C         32.93785        28.81757        -0.29759
C         31.68475        29.49786        -0.22738
C         32.92924        31.64263        -0.07721
C         31.69622        30.93387        -0.15034
C         32.93847        33.07309        -0.05126
C         31.70001        33.76668        -0.06352
C         32.91728        36.02652         0.01657
C         31.71786        35.22571        -0.31158
C         32.84850        37.35658         0.39256
C         31.36936        37.85869         0.56356
C         32.99258        40.35301         1.22398
C         31.13274        39.31538         0.79035
C         32.89507        41.70932         0.79340
C         31.67358        42.38888         0.55004
C         32.88356        44.56894         0.46318
C         31.67464        43.82221         0.37558
C         32.90460        45.99183         0.53655
C         31.67242        46.71591         0.41624
C         32.91467        48.86055         0.59777
C         31.68264        48.14591         0.43023
C         32.87506        50.30091         0.71701
C         31.69414        51.02747         0.65264
C         32.87507        53.16809         1.44510
C         31.63598        52.43988         0.94949
C         32.89764        54.65735         1.18053
C         35.21366        18.75877         0.65550
C         33.95545        18.07187         0.27633
C         35.29563        20.19305         0.16626
C         33.99329        20.91439         0.56325
C         35.31510        23.06327         0.36035
C         34.11383        22.38974         0.26467
C         35.39339        24.50909         0.10163
C         34.20223        25.21430        -0.11406
C         35.49042        27.39454        -0.38829
C         34.16900        26.64735        -0.40869
C         35.43737        28.84982        -0.17850
C         34.19745        29.53195        -0.22402
C         35.41776        31.66852        -0.03993
C         34.18355        30.94964        -0.09482
C         35.40528        33.11736        -0.01536
C         34.18182        33.79368        -0.06624
C         35.43948        36.02753         0.12533
C         34.17247        35.27573        -0.16276
C         35.35086        37.43751         0.56076
C         34.08403        38.11364         0.68146
C         35.40257        40.23072         1.27727
C         34.09889        39.52548         0.95098
C         35.42485        41.70943         0.91601
C         34.17828        42.35836         0.49191
C         35.43111        44.58642         0.67477
C         34.17910        43.88459         0.36368
C         35.39793        46.00377         0.78500
C         34.14402        46.70221         0.67493
C         35.39630        48.80802         0.89210
C         34.14455        48.13298         0.71838
C         35.41923        50.27901         0.80921
C         34.14431        51.05044         0.74832
C         35.32608        53.20194         0.88721
C         34.15696        52.50942         1.00354
C         35.33611        54.68103         0.74667
C         34.02329        55.34466         0.92998
C         37.75242        15.90884         0.72466
C         36.56749        16.55548         0.81036
C         37.78752        18.76534         0.76528
C         36.51054        18.02066         0.89300
C         37.78699        20.17084         0.77273
C         36.54733        20.92996         0.63020
C         37.73286        23.07460         1.06148
C         36.52887        22.30701         0.66778
C         37.79361        24.56671         0.80269
C         36.61590        25.25530         0.22557
C         37.90250        27.38957         0.20976
C         36.67951        26.63802         0.03174
C         37.91246        28.80656         0.07875
C         36.65989        29.54885        -0.03413
C         37.92403        31.71103        -0.27780
C         36.64203        30.96123        -0.03342
C         37.88956        33.13946         0.20051
C         36.66308        33.84121         0.16249
C         37.86687        35.95063         0.59181
C         36.66536        35.24910         0.36523
C         37.84474        37.39441         0.67834
C         36.60785        38.08137         0.71967
C         37.89914        40.22415         1.10248
C         36.61769        39.57961         0.62153
C         37.88572        41.71869         1.21699
C         36.60235        42.42069         0.95398
C         37.87548        44.56832         1.01242
C         36.63503        43.86731         0.83212
C         37.86428        45.98720         1.05227
C         36.62973        46.70122         0.96744
C         37.87860        48.85539         1.17977
C         36.61859        48.13322         1.02247
C         37.90943        50.26332         1.19222
C         36.64450        51.01201         1.22205
C         37.90692        53.19509         0.68967
C         36.62356        52.50204         1.09893
C         37.92076        54.67629         1.02771
C         36.65159        55.43099         0.82292
C         37.82802        57.51135         1.43868
C         36.67667        56.86603         1.20349
C         40.30267        14.46964         0.79243
C         40.25271        15.89512         0.77237
C         39.01896        16.61205         0.73853
C         40.26834        18.74941         0.71504
C         39.02003        18.03564         0.75350
C         40.26231        20.18897         0.80259
C         39.03810        20.86631         0.89193
C         40.31531        23.08016         1.12797
C         39.01278        22.30969         1.20958
C         40.27420        24.51753         0.78407
C         39.10724        25.23728         0.64906
C         40.34005        27.38880         0.39008
C         39.12279        26.67182         0.40190
C         40.36035        28.78971         0.25734
C         39.15149        29.52061         0.12932
C         40.35901        31.68285         0.27580
C         39.17796        30.96537         0.10374
C         40.36689        33.11275         0.46047
C         39.10928        33.82029         0.44342
C         40.33375        35.94048         0.71135
C         39.09826        35.23353         0.62591
C         40.31834        37.36237         0.67694
C         39.11398        38.09449         0.68611
C         40.34444        40.26802         0.83381
C         39.16322        39.53221         0.80828
C         40.36893        41.70285         1.01974
C         39.15880        42.44153         1.08630
C         40.36226        44.56827         1.26310
C         39.12974        43.85500         1.10514
C         40.32467        45.97141         1.41578
C         39.10110        46.71049         1.26129
C         40.30139        48.87087         1.87023
C         39.09182        48.11822         1.34344
C         40.34639        50.32676         1.49713
C         39.12621        51.02632         1.28432
C         40.33105        53.15588         1.32052
C         39.12642        52.43765         1.15347
C         40.34002        54.58817         1.41233
C         39.09512        55.33573         1.26036
C         40.23062        57.25585         2.26885
C         39.17335        56.86382         1.23875
C         40.54870        58.66735         2.71210
C         42.72364        14.51342         0.91618
C         41.50790        13.80165         0.83850
C         42.73374        15.90309         0.90321
C         41.49058        16.62098         0.77519
C         42.78148        18.74041         0.38187
C         41.48224        18.03295         0.67684
C         42.77241        20.21936         0.69061
C         41.52792        20.91954         0.79608
C         42.78937        23.04418         0.81350
C         41.54950        22.32000         0.85225
C         42.79481        24.43335         0.83579
C         41.56651        25.16179         0.51161
C         42.89108        27.35215         0.62908
C         41.61505        26.65136         0.33913
C         42.90605        28.79671         0.54798
C         41.66151        29.48057         0.14127
C         42.89386        31.69437         0.58949
C         41.66166        30.99682         0.18384
C         42.85664        33.09341         0.78652
C         41.58511        33.80636         0.68263
C         42.79410        35.95707         0.97672
C         41.56969        35.23102         0.77375
C         42.85065        37.34391         0.85903
C         41.60481        38.05847         0.52102
C         42.89227        40.25752         0.79793
C         41.60994        39.57412         0.56459
C         42.86502        41.69881         0.92292
C         41.62087        42.39997         1.03469
C         42.84630        44.50402         1.30433
C         41.61605        43.82702         1.22876
C         42.87484        45.93746         1.62930
C         41.56052        46.69638         1.74108
C         42.80706        48.84717         1.58355
C         41.61005        48.16903         1.63117
C         42.83231        50.30719         1.51125
C         41.56435        51.01150         1.46880
C         42.78427        53.14463         1.28279
C         41.56333        52.43752         1.40267
C         42.78119        54.55755         1.31776
C         41.57010        55.24235         1.61237
C         42.67775        57.46351         1.08550
C         41.59610        56.68586         1.86085
C         42.61954        57.54719         2.60302
C         41.84929        58.74318         3.05162
C         45.22252        15.99261         1.47854
C         43.97106        16.66276         1.09451
C         45.25767        18.77772         1.24107
C         43.97558        18.02121         0.95019
C         45.25662        20.19436         0.71965
C         43.99507        20.91156         0.67609
C         45.25830        23.05373         0.51967
C         44.03893        22.33919         0.71077
C         45.29855        24.45195         0.65564
C         44.05792        25.15746         1.17068
C         45.30366        27.31737         1.13534
C         44.03341        26.62910         0.85911
C         45.30426        28.82417         1.14224
C         44.06363        29.52675         0.77678
C         45.32649        31.66629         1.01693
C         44.09897        30.97363         0.75695
C         45.30876        33.08013         1.17865
C         44.06395        33.76447         1.11518
C         45.30474        35.98004         1.51236
C         43.99633        35.21100         1.38071
C         45.31139        37.41270         1.16350
C         44.09256        38.08004         0.93138
C         45.36054        40.23798         0.48709
C         44.07110        39.52503         0.79264
C         45.34454        41.70402         0.85136
C         44.10006        42.39731         0.97331
C         45.31179        44.53794         1.15840
C         44.09269        43.82101         1.15465
C         45.29592        45.98416         1.13814
C         44.07817        46.70456         1.32145
C         45.25721        48.84826         1.21204
C         44.07532        48.13588         1.39703
C         45.35344        50.32164         1.49188
C         44.01981        51.00373         1.34859
C         45.15425        53.08938         0.64194
C         44.02178        52.42430         1.11524
C         45.01172        54.50156         0.23501
C         43.91197        55.29484         0.82104
C         44.97041        57.34919         0.02367
C         43.83390        56.66411         0.58009
C         46.41094        16.60158         1.30987
C         47.73970        18.76522         0.86840
C         46.44618        17.98701         0.69436
C         47.70459        20.14575         0.74093
C         46.45058        20.84531         0.53144
C         47.76629        23.00333         0.03719
C         46.42936        22.25093        -0.03388
C         47.75759        24.52476         0.21027
C         46.49843        25.21667         0.54085
C         47.78311        27.33396         0.84144
C         46.55747        26.59326         0.84330
C         47.78766        28.77199         0.99695
C         46.58823        29.53443         1.02142
C         47.81399        31.66320         1.27587
C         46.58024        30.94551         1.07475
C         47.80375        33.05914         1.49206
C         46.56337        33.80461         1.41026
C         47.78115        35.98727         1.76311
C         46.55738        35.20172         1.49207
C         47.80061        37.42770         1.42087
C         46.58162        38.11867         1.15198
C         47.81379        40.23399         1.03055
C         46.60166        39.51636         0.93981
C         47.81773        41.68990         0.90454
C         46.55625        42.39542         0.89808
C         47.76752        44.54529         1.00913
C         46.56543        43.84310         1.01785
C         47.75733        45.99681         1.18138
C         46.49096        46.69290         1.01365
C         47.76102        48.88576         0.79181
C         46.45866        48.14181         0.67294
C         47.67877        50.30872         0.53891
C         46.48686        51.00988         0.75654
C         47.53348        53.07295        -0.09399
C         46.40392        52.39471         0.41602
C         47.47037        54.46270        -0.72375
C         46.17519        55.23313        -0.41608
C         46.11820        56.70079        -0.33820
C         50.19399        18.72129         0.90910
C         48.99835        18.07085         0.87836
C         50.25911        20.17763         1.07280
C         48.93841        20.93818         0.90710
C         50.22605        23.03231         0.42887
C         49.01119        22.33198         0.43435
C         50.21458        24.47599         0.38289
C         49.02359        25.20454         0.51029
C         50.26095        27.32628         0.77760
C         49.01620        26.62282         0.69884
C         50.24922        28.73034         1.03217
C         49.02910        29.47806         1.10970
C         50.27705        31.51818         1.68033
C         49.04226        30.89808         1.31303
C         50.35350        32.97424         2.06490
C         49.05397        33.74389         1.95413
C         50.34647        35.99912         1.74825
C         49.08117        35.25735         1.97870
C         50.31139        37.38012         1.51558
C         49.03663        38.11749         1.43315
C         50.26646        40.30379         1.29701
C         49.01946        39.52909         1.26471
C         50.26191        41.72056         0.91890
C         49.02146        42.40216         0.85511
C         50.29331        44.54318         1.31329
C         49.06745        43.89454         0.62402
C         50.35020        46.06183         1.09266
C         49.03348        46.79216         1.17850
C         50.15647        48.86911         0.26253
C         48.97186        48.22650         0.79647
C         50.05380        50.27526        -0.12680
C         48.84279        50.99515         0.08397
C         49.98649        53.09720        -0.52633
C         48.78076        52.39038        -0.19388
C         49.93217        54.55066        -0.49426
C         48.75499        55.21224        -0.46634
C         52.74285        20.24486         0.98796
C         51.51761        20.91884         0.83335
C         52.74725        22.99797         0.51091
C         51.50136        22.31688         0.59461
C         52.79138        24.43899         0.21279
C         51.46500        25.22934         0.22328
C         52.74117        27.34579         0.68690
C         51.49790        26.65364         0.58763
C         52.74042        28.72125         1.02769
C         51.48834        29.37769         1.27595
C         53.18404        31.79497         1.70360
C         51.37097        30.67303         1.86276
C         52.93436        33.14956         1.47454
C         51.73790        33.76637         2.21398
C         52.85375        36.01902         1.24727
C         51.63510        35.29004         1.87826
C         52.68076        37.39820         0.78113
C         51.52136        38.07769         1.13066
C         52.67978        40.24614         0.46406
C         51.57427        39.54766         1.13559
C         52.65522        41.65895         0.32975
C         51.47960        42.38268         0.68712
C         52.78287        44.56212         0.25807
C         51.57592        43.84688         0.84548
C         52.87010        46.09235         0.18031
C         51.53576        46.78693         0.50686
C         52.17176        48.69476        -1.13995
C         51.29911        48.14479        -0.03354
C         52.44280        50.18804        -0.90584
C         51.16814        50.95607        -0.62553
C         52.43540        52.99542        -1.16618
C         51.17061        52.36965        -0.76868
C         53.94494        20.92927         0.96840
C         55.24335        23.04091         0.69307
C         53.97493        22.32254         0.74088
C         55.25770        24.45881         0.53014
C         54.02420        25.18056         0.42905
C         55.21582        27.28981         0.40874
C         54.00182        26.61315         0.48300
C         55.27971        28.73140         0.62159
C         54.01936        29.49507         1.01172
C         54.72644        31.73041        -0.06734
C         53.96782        30.99817         0.84412
C         54.97447        33.11765         0.07329
C         53.95450        33.84894         0.75917
C         55.05671        35.92936         0.05913
C         53.98902        35.26833         0.68912
C         54.98800        37.35516        -0.08971
C         53.81828        38.07125         0.20542
C         54.81939        40.16997        -0.71920
C         53.77357        39.49794        -0.00792
C         54.71228        41.54293        -1.00573
C         53.70744        42.33342        -0.39644
C         54.70199        44.40050        -1.36101
C         53.72575        43.75496        -0.54777
C         54.67347        45.82541        -1.57298
C         53.60116        46.61734        -1.04082
C         54.45595        48.60389        -2.21260
C         53.46037        47.94787        -1.40551
C         54.38613        50.00184        -2.49359
C         53.18003        50.82627        -2.08601
C         53.42705        52.28202        -1.73948
C         57.68733        23.05568         0.68415
C         56.48407        22.37505         0.79355
C         57.72219        24.44905         0.42741
C         56.49918        25.14088         0.38567
C         57.77034        27.30335         0.20047
C         56.46598        26.57943        -0.05264
C         57.79070        28.71077         0.22016
C         56.52592        29.40012         0.16962
C         57.57431        31.61360        -0.25497
C         56.50984        30.65022        -0.39332
C         57.42132        33.03851        -0.64512
C         56.19872        33.74859        -0.39780
C         57.39661        35.85421        -0.82229
C         56.22895        35.18616        -0.39761
C         57.44669        37.33603        -0.83020
C         56.18384        38.10589        -0.49739
C         57.06884        40.07172        -1.74852
C         56.02536        39.45920        -1.04784
C         56.92460        41.42493        -2.22110
C         55.59069        42.12559        -2.07734
C         56.69441        44.24363        -2.79608
C         55.70376        43.63074        -2.03272
C         56.70835        45.65799        -2.97382
C         55.65034        46.43992        -2.40256
C         56.59343        48.48187        -3.44926
C         55.57530        47.84696        -2.67710
C         56.47482        49.85081        -3.73172
C         55.38924        50.59260        -3.26093
C         60.19954        24.47307         0.04649
C         58.98800        25.15508         0.17967
C         60.21198        27.29461        -0.18224
C         58.99054        26.58688         0.07767
C         60.18181        28.73384        -0.36441
C         58.98497        29.42736        -0.08690
C         60.06311        31.62104        -0.79297
C         58.96561        30.89962        -0.15797
C         59.89520        33.02129        -1.11216
C         58.62484        33.71683        -0.97723
C         59.73683        35.83151        -1.65491
C         58.57761        35.13950        -1.18854
C         59.78736        37.34217        -1.78449
C         58.44631        38.01162        -1.65971
C         59.27155        39.95087        -2.91318
C         58.28018        39.33513        -2.06623
C         59.11982        41.30105        -3.31518
C         57.92278        42.02956        -2.95590
C         58.90334        44.10595        -4.02622
C         57.65411        43.38241        -3.58904
C         58.86020        45.52163        -4.22438
C         57.74842        46.28890        -3.72996
C         58.79465        48.32051        -4.60265
C         57.72613        47.70297        -3.93556
C         61.39687        25.16873        -0.18728
C         61.40720        26.55144        -0.30805
C         61.29002        29.48966        -0.85168
C         61.20471        30.85486        -1.11436
C         61.00715        33.75808        -1.56129
C         60.92396        35.12190        -1.83894
C         60.54057        37.85177        -2.98049
C         60.32787        39.10947        -3.43424
C         60.13269        41.98321        -4.04407
C         60.03826        43.33978        -4.33616
C         59.91831        46.19970        -4.88503
C         59.88087        47.57106        -5.07069
O         45.08387        54.68226        -1.24022
O         45.25713        28.05427         2.41740
O         39.73025        22.68359         2.42329
O         49.54331        20.71880         2.23199
O         35.66323        18.52967         2.01160
O         34.26030        43.00554        -0.81209
O         34.92253        50.75623        -0.49328
O         58.31839        31.50536         0.99920
O         29.16273        34.71632         1.08531
O         52.13307        24.86984        -1.03859
O         37.50535        24.02879         2.14645
O         44.48294        35.63735         2.69590
O         41.67797        25.77948        -0.85050
O         32.64201        22.82948        -1.63410
O         52.42451        31.13033         2.65884
O         52.74296        44.16019         1.67705
O         51.30997        46.71752         1.97375
O         49.53352        33.21586         3.25192
O         57.28112        37.96928         0.49608
O         48.32355        35.76268         3.13019
O         22.84831        36.77113         0.70860
O         26.09849        35.73419         1.00340
O         36.02656        55.14390        -0.49086
O         31.87521        39.81217         1.86808
O         34.97097        35.81675        -1.27524
O         34.89301        26.97353        -1.65658
O         41.80799        30.26384        -1.09115
O         37.88402        40.84984         2.43221
O         36.58158        51.87145         2.43267
O         47.86231        23.89043        -1.12395
O         52.62717        35.97252         2.69410
O         42.25662        46.22050         2.95181
O         41.64687        38.84995        -0.72616
O         55.36965        31.04970        -1.10437
O         30.71835        24.71894         0.85854
O         54.97457        29.09792         2.04512
O         31.20923        35.36083        -1.77043
O         29.36073        42.01668         1.44108
O         48.41338        46.51006         2.47290
O         51.15756        40.07206         2.43847
O         40.12237        48.85377         3.33817
H         40.34267        47.94953         3.65152
O         54.87375        41.83451        -3.33517
H         55.41268        42.24021        -4.06307
O         27.27123        42.53556        -2.67569
H         27.69881        41.67662        -2.88946
O         35.35824        20.12531        -1.27805
H         35.20592        21.02646        -1.63505
O         36.51488        39.88825        -0.79997
H         37.04811        39.23789        -1.30348
O         52.27645        50.83040        -3.23887
H         52.75947        51.21558        -3.99983
O         44.15408        25.10394         2.64985
H         44.72206        25.85093         2.94329
O         42.94824        18.65946        -1.08426
H         43.90261        18.79302        -1.27893
O         50.14948        44.30352         2.71467
H         50.82570        44.84343         3.17779
O         28.76947        29.32551         1.27758
H         27.93096        29.81582         1.41727
O         53.31869        50.30960         0.23580
H         52.90845        49.83698         0.99079
O         35.44006        40.09239         2.71822
H         36.30938        40.44628         3.03702
O         32.84866        53.00079         2.90369
H         33.71265        53.29955         3.25913
O         31.31754        37.85776        -1.83640
H         31.59520        37.01865        -2.29238
O         53.78162        46.48761         1.24128
H         53.45530        46.04840         2.06079
O         47.45348        54.22014        -2.16529
H         46.51327        54.03622        -2.39824
O         26.64531        37.88231        -2.67316
H         27.40438        38.35205        -3.07954
O         39.81350        56.55777         3.47512
H         40.48779        56.71970         4.16776
O         56.37349        26.54299        -1.53559
H         55.58903        25.99741        -1.76204
O         33.85074        20.76973         1.99844
H         33.05817        21.26567         2.28885
O         52.05887        33.67179         3.60382
H         51.22599        33.80289         4.11141
O         30.63847        50.53881        -1.40211
H         30.70881        51.50344        -1.56654
O         29.71612        39.94899        -2.23980
H         30.47145        39.34062        -2.44875
O         46.22454        17.85027        -0.73928
H         46.95713        17.31755        -1.11239
O         45.44010        40.21047        -0.99800
H         44.54705        40.42855        -1.34275
O         42.32355        58.58687         0.32577
H         41.43518        58.42817        -0.06493
O         30.83376        37.15424         1.70246
H         31.09736        37.64314         2.51130
O         45.71346        50.43521         2.92158
H         45.03114        49.95375         3.43700
O         45.41882        18.85509         2.68308
H         44.67714        19.38169         3.04698
O         46.13354        22.05801        -1.44887
H         46.46770        22.86038        -1.91517
O         30.28516        22.61452        -3.18971
H         31.24901        22.60096        -2.98202
O         24.27300        39.25100        -2.83225
H         24.33306        40.08308        -3.34729
O         37.92832        53.13770        -0.77423
H         37.20805        53.73848        -1.08969
O         46.24242        48.14762        -0.82299
H         45.34671        47.77814        -0.98398
O         51.37112        48.49940        -2.34230
H         51.56902        49.23751        -2.97106
O         60.53580        37.80309        -0.59582
H         59.93040        37.73969         0.17500
O         49.27521        44.14511        -0.80471
H         48.54228        43.72121        -1.29998
O         56.91700        43.06826        -4.84522
H         57.53273        42.56283        -5.41901
O         37.99761        31.80768        -1.75449
H         38.88770        32.15080        -1.98475
O         39.67955        57.28246        -0.06145
H         39.06786        56.94342        -0.74932
H         23.73209        23.91518        -4.21931
H         21.71371        25.23963        -4.73178
H         21.53530        27.59391        -4.02079
H         21.31809        29.30896        -3.21687
H         21.14727        31.59734        -2.40232
H         20.93921        33.06816        -1.09966
H         20.80548        35.25647         0.08688
H         20.94522        38.35255         0.38468
H         20.99329        40.62629        -0.63973
H         21.04546        42.11603        -2.09992
H         21.16193        44.54726        -2.34768
H         21.24599        46.41199        -2.49438
H         23.23417        50.05866        -1.44226
H         21.25312        48.86776        -2.30158
H         25.31734        22.92257        -3.82748
H         24.65950        50.89799        -0.52724
H         27.33850        21.66096        -3.26603
H         26.68419        52.07026         0.16261
H         30.29794        19.21124        -0.88599
H         28.55967        20.45236        -1.98951
H         30.33221        54.11270         1.32444
H         28.24923        52.89358         0.95193
H         31.94285        18.20474        -0.36144
H         31.95574        55.21566         1.28709
H         33.91811        16.97284         0.29929
H         33.97124        56.43181         0.76874
H         37.74880        14.81235         0.67122
H         35.62939        15.98514         0.85246
H         37.81143        58.57625         1.71818
H         35.71897        57.39931         1.29753
H         39.37594        13.88208         0.76982
H         39.79615        59.43965         2.91490
H         43.66353        13.95025         0.99287
H         41.52545        12.70288         0.84410
H         43.44789        57.13979         3.20610
H         42.33719        59.61541         3.50641
H         45.17890        14.97498         1.89330
H         44.92983        58.44696        -0.02192
H         47.34253        16.08187         1.57801
H         47.00392        57.29005        -0.61518
H         51.12218        18.15011         0.77029
H         48.99452        16.97542         0.77885
H         50.87577        55.11242        -0.42344
H         48.74586        56.31004        -0.40482
H         52.75154        19.16570         1.18978
H         52.57201        54.07202        -0.98362
H         54.87200        20.37151         1.14987
H         54.37140        52.77156        -2.02029
H         58.62213        22.48585         0.76955
H         56.51757        21.28846         0.94704
H         57.23131        50.36620        -4.33716
H         55.33318        51.66326        -3.50598
H         60.23511        23.37770         0.11771
H         58.80258        49.40641        -4.76138
H         62.33607        24.60650        -0.28327
H         62.35903        27.06612        -0.49715
H         62.22748        28.97402        -1.10051
H         62.07252        31.33910        -1.58340
H         61.98238        33.26513        -1.66594
H         61.83078        35.65383        -2.15741
H         61.32331        37.22865        -3.43657
H         60.93882        39.48482        -4.26802
H         61.06463        41.46099        -4.29661
H         60.91928        43.82362        -4.77970
H         60.77623        45.63796        -5.27618
H         60.70605        48.07677        -5.59085
