         232
 CSIRO Nanostructure Databank - Neutral Graphene Oxide Data Set
C        -11.18173         0.76186         0.63849
C        -10.13296         1.46334        -0.06986
C         -9.17128         0.58689        -0.67859
C         -7.31006         1.66310        -0.95226
C         -6.19825         0.84218        -0.73313
C         -4.99334         1.46206        -0.33899
C         -3.75934         0.64853        -0.23789
C         -2.41672         1.33858        -0.12670
C         -1.19374         0.67252        -0.68838
C          0.08376         1.43089        -0.77647
C          1.25311         0.75924        -0.90848
C          2.48617         1.48385        -0.49472
C          3.68586         0.74118        -0.01046
C          4.95968         1.48886         0.10118
C          6.19550         0.74824         0.15455
C          7.40223         1.44082         0.15018
C          8.68134         0.76305        -0.14494
C          9.96994         1.54410        -0.17021
C         11.21697         0.77701         0.05512
C         -9.95054         2.85496        -0.03210
C         -8.71737         3.60458        -0.20894
C         -7.43516         2.95419        -0.42982
C         -6.19985         3.60331        -0.12590
C         -4.96105         2.86204        -0.15183
C         -3.70670         3.56369         0.00143
C         -2.38347         2.83977         0.20186
C         -1.27103         3.53372        -0.63236
C          0.12897         2.89755        -0.35888
C          1.25875         3.64916        -1.11701
C          2.66412         2.91711        -1.01918
C          3.72510         3.64084        -0.20230
C          4.91277         2.87835         0.14487
C          6.12188         3.61502         0.53320
C          7.45620         2.86544         0.47405
C          8.69491         3.65520         0.25546
C          9.90290         2.99723         0.03693
C         -8.68473         4.96648         0.11462
C         -7.45424         5.70396         0.25905
C         -6.21385         4.98730         0.11092
C         -4.93958         5.70104         0.07333
C         -3.68102         4.93942         0.04765
C         -2.42938         5.70408        -0.03436
C         -1.25998         5.03424        -0.44140
C         -0.02184         5.82945        -0.81302
C          1.28266         5.08168        -0.62671
C          2.42699         5.73763        -0.24441
C          3.66879         5.00599        -0.03016
C          4.82585         5.76209         0.59008
C          6.14453         5.07043         0.41019
C          7.36287         5.76790         0.40438
C          8.60268         5.06984         0.32911
C         -7.43104         7.05532         0.63019
C         -6.17631         7.68978         1.17325
C         -4.91957         7.12446         0.53654
C         -3.58708         7.69384         1.00750
C         -2.44783         7.09520         0.23097
C         -1.30285         7.95700        -0.23467
C         -0.02203         7.13881        -0.00683
C          1.25704         7.90818        -0.16479
C          2.42948         7.20840        -0.09438
C          3.69640         7.91869         0.03450
C          4.87245         7.22732         0.23477
C          6.14109         7.92009         0.32081
C          7.33039         7.21592         0.40631
C         -6.10694         9.19935         1.13189
C         -4.92289         9.85802         1.10727
C         -3.62482         9.21085         0.97049
C         -2.46486         9.92421         0.85619
C         -1.21117         9.31126         0.44488
C         -0.02464         9.97328         0.43434
C          1.18158         9.40891        -0.28951
C          2.49557        10.07252         0.02083
C          3.67777         9.37793         0.05489
C          4.95336        10.05838         0.18821
C          6.12076         9.36844         0.28436
C        -11.10056        -0.59107         0.85476
C         -9.94948        -1.38211         0.47299
C         -8.91427        -0.70438        -0.26832
C         -7.56922        -1.33408        -0.42110
C         -6.35584        -0.62391        -1.02023
C         -5.09559        -1.41170        -1.14248
C         -3.80445        -0.76256        -0.72008
C         -2.57398        -1.42704        -1.27267
C         -1.27634        -0.66539        -1.38636
C          0.06193        -1.39274        -1.75114
C          1.34446        -0.67862        -1.25365
C          2.57843        -1.40486        -0.78949
C          3.69071        -0.78312         0.05774
C          5.03717        -1.43236        -0.27357
C          6.17417        -0.71131        -0.04366
C          7.44560        -1.43138         0.21424
C          8.73678        -0.67235         0.24415
C         10.03003        -1.38949         0.19512
C         11.23384        -0.57803         0.15900
C         -9.87009        -2.76043         0.69421
C         -8.71588        -3.52923         0.34446
C         -7.48651        -2.79698        -0.07349
C         -6.32652        -3.61972        -0.54914
C         -5.08865        -2.91882        -1.01600
C         -3.77220        -3.60250        -0.87656
C         -2.61070        -2.91212        -1.15974
C         -1.30981        -3.61605        -1.12835
C         -0.01099        -2.88684        -1.35616
C          1.20962        -3.55776        -0.78458
C          2.51103        -2.87687        -0.54388
C          3.79654        -3.63958        -0.69022
C          5.14023        -2.88216        -0.80182
C          6.38957        -3.62728        -0.24354
C          7.49664        -2.90209         0.09816
C          8.79598        -3.52939         0.42802
C         10.01742        -2.74727         0.38640
C         -8.64329        -4.90285         0.52342
C         -7.41820        -5.65502         0.36973
C         -6.23726        -5.01330        -0.06854
C         -4.99584        -5.69452        -0.12801
C         -3.77639        -5.01135        -0.47295
C         -2.55963        -5.68330        -0.26351
C         -1.31077        -4.90877        -0.36691
C         -0.02576        -5.64297        -0.20487
C          1.17501        -5.05210        -0.84530
C          2.46262        -5.78309        -0.83161
C          3.66257        -4.94088        -1.05790
C          5.48347        -6.01364        -0.50473
C          6.69169        -5.14343        -0.40689
C          7.62040        -5.64333         0.67095
C          8.83182        -4.85726         0.78864
C         -7.36274        -7.03971         0.67443
C         -6.15818        -7.74825         0.60657
C         -4.94303        -7.07130         0.25800
C         -3.69865        -7.76322         0.31911
C         -2.48850        -7.05791         0.11294
C         -1.21388        -7.74977         0.27552
C         -0.01781        -7.08715         0.05153
C          1.29245        -7.68156         0.35219
C          2.56367        -7.07714        -0.09956
C          3.75666        -7.67538         0.29309
C          5.06903        -6.99201         0.33436
C          6.02025        -7.47142         1.41875
C          7.35020        -6.75392         1.40349
C         -6.09947        -9.16088         0.90530
C         -4.91985        -9.84367         0.89400
C         -3.66595        -9.17609         0.63225
C         -2.45792        -9.85773         0.68560
C         -1.19686        -9.18437         0.54994
C          0.00561        -9.87991         0.64402
C          1.29220        -9.19334         0.74778
C          2.60402        -9.84344         0.69510
C          3.75298        -9.08156         0.69235
C          5.05445        -9.70877         0.94715
C          6.13858        -8.98081         1.27854
O          2.49635        -0.95926        -2.15392
O          7.39646        -5.25459        -1.67327
H          6.77023        -4.95080        -2.36732
O          8.02016        -0.93850         1.49145
O         -2.08243         2.96873         1.61257
H         -2.44654         2.18658         2.07937
O         -0.12524         6.11297        -2.24228
H          0.22160         5.30181        -2.70688
O          5.44480        -7.20678         2.72748
H          4.55946        -7.62830         2.75482
O         -6.00549        -3.53093        -1.98156
O          1.58608        -5.76487        -2.04180
O          3.44100        -1.15957         1.42969
H          2.95562        -0.41466         1.85437
O          0.92990         3.67764        -2.52879
H          1.80376         3.36529        -2.95571
O          3.21533         2.83933        -2.30530
O          4.72025        -5.65458        -1.62735
O          9.26906         1.09709        -1.43353
O          5.41818        -2.74531        -2.22788
H          4.68803        -2.23040        -2.63614
O          6.79963         3.15430         1.75619
O         -1.53916         0.57305         0.75429
O          0.48440         3.02381         1.01958
H         -0.26288         2.68719         1.57016
O          2.69626         1.31071         0.94282
O         -7.11832        -1.78958         0.92714
O         -2.18884        -0.75923        -2.52414
O         -5.80760        -0.95953        -2.33410
O          1.31034        -8.11973         1.74870
O         -1.56471         8.24094        -1.62651
H         -1.23078         7.49179        -2.17744
O         -3.39088         7.28596         2.39003
H         -4.26206         7.36386         2.84974
O         -0.08493         6.76383         1.39577
H          0.70960         6.22946         1.61232
O          1.60560        -3.15931         0.57328
O         -4.99049         6.88464        -0.87213
O         -3.84033        -0.48260         0.71073
O         -0.60572        -3.69308        -2.42091
O         -8.36771         1.12691        -1.68597
O         -0.56895        -4.84456         0.90187
O         -1.63040         3.26312        -2.00720
H         -0.81296         3.37811        -2.55960
O          0.94633         9.69066        -1.71783
H          1.61976         9.19739        -2.23233
O          0.18033        -1.34157        -3.17383
H         -0.56849        -1.85357        -3.55236
O         -6.10828         7.30676         2.60316
H         -6.87790         7.71145         3.05714
O          4.58627         5.72019         2.04823
H          5.40676         6.01882         2.49528
H         12.19775        -1.09642         0.27635
H         12.16163         1.33941         0.10486
H         10.83695         3.57963         0.00221
H          9.52855         5.65943         0.24754
H          8.28467         7.76189         0.43978
H          7.07842         9.90430         0.36078
H          4.95666        11.15843         0.19119
H          2.51497        11.17308         0.06250
H          0.04944        10.98531         0.86329
H         -2.49125        11.02178         0.95953
H         -4.92681        10.95997         1.12146
H         -7.04797         9.76766         1.19529
H         -8.38169         7.59918         0.74498
H         -9.62902         5.48964         0.33021
H        -10.77788         3.43764         0.40847
H        -12.03182         1.33250         1.04075
H        -11.90983        -1.09631         1.40269
H        -10.72506        -3.27987         1.15312
H         -9.53681        -5.44347         0.87119
H         -8.28260        -7.56145         0.97770
H         -7.03875        -9.68310         1.13966
H         -4.90053       -10.92018         1.11898
H         -2.45627       -10.93601         0.90631
H         -0.00906       -10.97992         0.68331
H          2.66865       -10.93759         0.79515
H          5.10394       -10.80862         0.92338
H          7.09068        -9.47421         1.52504
H          8.08430        -7.08876         2.15390
H          9.75167        -5.30659         1.19202
H         10.96984        -3.29280         0.47401
