         228
 CSIRO Nanostructure Databank - Neutral Graphene Oxide Data Set
C        -11.17595         0.64208        -0.49944
C        -10.00089         1.43963        -0.12592
C         -8.65779         0.65927        -0.17464
C         -7.42269         1.48711        -0.25725
C         -6.11876         0.74612        -0.24909
C         -4.93712         1.40864         0.32668
C         -3.76567         0.72283         0.53513
C         -2.50566         1.44305         0.68527
C         -1.27884         0.73703         0.65673
C         -0.00616         1.45065         0.43671
C          1.31698         0.73209         0.56787
C          2.56259         1.48802         0.85832
C          3.77848         0.71195         0.93349
C          5.09757         1.38028         1.28768
C          6.23049         0.68155         0.58586
C          7.27642         1.42612        -0.19237
C          8.62525         0.75117        -0.12668
C          9.77077         1.43298        -0.65823
C         10.88427         0.72615        -1.25985
C         -9.93269         2.89674        -0.26412
C         -8.74819         3.62378        -0.04832
C         -7.48048         2.92364         0.12447
C         -6.29286         3.60590         0.29313
C         -5.05496         2.84762         0.60827
C         -3.77457         3.59070         0.85914
C         -2.51302         2.85156         0.72806
C         -1.26688         3.59181         0.99460
C          0.00548         2.94522         0.56982
C          1.29345         3.66151         0.80203
C          2.54174         2.86787         0.97911
C          3.79252         3.65147         1.15953
C          5.10489         2.90816         1.14189
C          6.29110         3.60050         0.57634
C          7.36022         2.90651         0.08338
C          8.54898         3.58185        -0.42115
C          9.67416         2.83741        -0.82581
C         -8.71208         5.04010        -0.06084
C         -7.49121         5.77475         0.01730
C         -6.23128         5.05333         0.24903
C         -5.03085         5.74733         0.35335
C         -3.69933         5.04415         0.45643
C         -2.59185         5.79975         1.19019
C         -1.28324         5.05415         1.34237
C          0.00594         5.95246         1.44017
C          1.35459         5.07513         1.40522
C          2.50702         5.73077         0.67081
C          3.75084         5.07236         0.69407
C          4.94909         5.72895         0.36430
C          6.30543         5.11640         0.65528
C          7.39407         5.74366        -0.19483
C          8.49779         4.99548        -0.58049
C         -7.46360         7.14981        -0.18284
C         -6.16681         7.84631        -0.49142
C         -4.97652         7.18496         0.16940
C         -3.83350         7.89710         0.41471
C         -2.57259         7.26929         0.90372
C         -1.29297         7.88698         0.48085
C         -0.07943         7.15550         0.49656
C          1.07810         7.71943        -0.06676
C          2.35282         6.92871        -0.21795
C          3.57342         7.82589        -0.14574
C          4.91486         7.17440         0.08202
C          6.11144         7.83532        -0.47535
C          7.28760         7.11095        -0.58854
C         -6.18059         9.34230        -0.32226
C         -5.08872        10.04238         0.00193
C         -3.79662         9.40274         0.43395
C         -2.56203         9.87807        -0.28616
C         -1.36298         9.15657        -0.20422
C         -0.16241         9.70614        -0.75093
C          1.04847         9.02087        -0.66469
C          2.26877         9.63992        -1.15075
C          3.50861         9.10282        -0.89825
C          4.74885         9.74505        -1.24392
C          5.96921         9.15359        -1.02850
C        -11.11143        -0.71754        -0.57095
C         -9.86378        -1.46093        -0.55942
C         -8.66080        -0.74672        -0.58685
C         -7.38267        -1.45615        -0.82655
C         -6.09481        -0.74148        -0.47706
C         -4.93748        -1.50626         0.04536
C         -3.83255        -0.77068         0.78563
C         -2.51129        -1.49589         0.68045
C         -1.25996        -0.71705         0.88178
C          0.05291        -1.44591         0.94023
C          1.33537        -0.73204         0.76467
C          2.52741        -1.40397         0.69837
C          3.77599        -0.67507         0.76744
C          5.01415        -1.44108         0.77994
C          6.25023        -0.69439         0.62974
C          7.49315        -1.41101         0.36476
C          8.65369        -0.57268         0.26321
C         10.26473        -1.60623        -0.68859
C         11.04495        -0.63229        -1.42099
C         -9.87594        -2.90201        -0.60781
C         -8.71611        -3.66289        -0.62173
C         -7.39031        -2.98632        -0.89532
C         -6.25506        -3.60921        -0.09510
C         -4.97535        -2.86552         0.10426
C         -3.78111        -3.62024         0.57968
C         -2.50244        -2.85393         0.64585
C         -1.22603        -3.60390         0.53228
C          0.07378        -2.92060         0.79282
C          1.26177        -3.58465         0.74277
C          2.53691        -2.86634         0.33116
C          3.84251        -3.60256         0.57582
C          5.04627        -2.83377         0.70219
C          6.37650        -3.54136         0.93431
C          7.56658        -2.80057         0.30174
C          8.69925        -3.51497        -0.28397
C          9.75892        -2.83003        -1.04459
C         -8.68946        -5.09187        -0.63947
C         -7.48886        -5.81919        -0.55750
C         -6.26385        -5.10030        -0.10096
C         -4.92272        -5.74959        -0.35785
C         -3.77102        -5.12468         0.40569
C         -2.49859        -5.86392         0.31168
C         -1.24533        -5.09162         0.39391
C          0.01571        -5.84344         0.63798
C          1.30337        -5.06367         0.74115
C          2.58809        -5.74162         0.40708
C          3.86610        -4.97645         0.37762
C          5.08421        -5.75585         0.38798
C          6.35306        -5.05377         0.66149
C          7.61578        -5.75202         0.14108
C          8.69962        -4.89747        -0.35486
C         -7.39263        -7.22218        -0.70623
C         -6.17207        -7.93332        -0.57460
C         -4.94160        -7.25656        -0.31229
C         -3.72509        -7.94032        -0.25584
C         -2.48191        -7.21964        -0.02506
C         -1.24779        -7.93738        -0.14755
C          0.02458        -7.26671         0.20441
C          1.22739        -7.81196        -0.53112
C          2.54878        -7.07267        -0.28099
C          3.83970        -7.80898        -0.34144
C          5.08965        -7.11820         0.08469
C          6.31629        -7.82713        -0.21803
C          7.49811        -7.12705        -0.35128
C         -6.11164        -9.36236        -0.72735
C         -4.92033       -10.04207        -0.68679
C         -3.66984        -9.36245        -0.48067
C         -2.43317       -10.02352        -0.53927
C         -1.20083        -9.32005        -0.39139
C          0.09297        -9.99906        -0.41772
C          1.29621        -9.32386        -0.40921
C          2.58747        -9.96809        -0.45811
C          3.79066        -9.28866        -0.45163
C          5.07016        -9.94801        -0.56016
C          6.24186        -9.24992        -0.51955
O         -9.34120         0.91756         1.08603
O          5.30984         1.08996         2.70195
H          4.84250         1.79409         3.20996
O          0.72146         1.01097        -0.76922
O         -5.98123         7.63341        -1.94413
H         -6.02313         6.66678        -2.10546
O          2.44946        -2.87050        -1.14244
H          1.69654        -2.30080        -1.41131
O         -6.47496        -0.98049        -1.88170
O          0.86674        -7.54261        -1.91647
H          1.70850        -7.54189        -2.43108
O          4.20382         7.93948         1.14425
O         -2.83053         6.71704         2.26633
O         -0.06712         6.55956         2.68384
O         -4.22399        -0.86109         2.19545
H         -3.48357        -0.51859         2.74102
O          6.60066        -3.38770         2.36629
H          7.18154        -4.13485         2.64350
O          6.82692         1.33511        -1.59858
H          7.51317         1.77280        -2.14713
O         -0.62346        -1.04496         2.20493
O         -4.62258        -5.41457        -1.75579
H         -5.36724        -5.72748        -2.31289
O          6.58849         5.47704         2.04213
H          5.91474         5.01250         2.59514
O         -3.16647         5.01386        -0.91719
H         -3.82540         4.57876        -1.49921
O          3.31151        -7.07001        -1.53332
O         -1.12235        -4.23739        -0.82196
O         -7.10648        -3.36465        -2.27627
H         -6.62206        -2.60577        -2.68385
O          2.35124         6.38254        -1.58771
H          1.65749         5.68796        -1.63818
O         -3.59936         9.81863         1.82791
H         -2.97902         9.18804         2.25561
O         -4.60280         3.20956         1.98648
O          0.00084        -6.92112         1.62452
O          1.74392         4.89521         2.77004
H          1.18111         5.55994         3.27147
O         -6.61939         1.40261        -1.47891
O          2.12191        -5.68515         1.80117
O          7.26671        -5.71162         1.58774
O         -4.02019        -4.52824         1.70922
O          9.88374        -1.14757         0.59254
O          4.58631         3.50959         2.39163
O         -1.29283         4.07058         2.40022
O         -6.55352        -4.36167         1.12714
O          0.68649         3.63662        -0.53866
H         11.80203        -0.98788        -2.13712
H         11.59010         1.37161        -1.80895
H         10.52916         3.37850        -1.25965
H          9.32907         5.49606        -1.10143
H          8.15064         7.57008        -1.09637
H          6.88302         9.67259        -1.35434
H          4.70329        10.73271        -1.72612
H          2.18673        10.61261        -1.65963
H         -0.20047        10.69415        -1.23253
H         -2.54927        10.88193        -0.73866
H         -5.13651        11.14019         0.06930
H         -7.11349         9.86556        -0.58429
H         -8.40505         7.68321        -0.38724
H         -9.64955         5.59681        -0.20915
H        -10.85106         3.43816        -0.53694
H        -12.12790         1.16092        -0.68659
H        -12.03222        -1.28876        -0.76296
H        -10.85123        -3.40835        -0.53994
H         -9.64028        -5.63790        -0.74520
H         -8.30302        -7.79190        -0.94875
H         -7.04855        -9.91084        -0.90449
H         -4.90778       -11.13198        -0.83558
H         -2.41309       -11.10966        -0.71633
H          0.09094       -11.10041        -0.44426
H          2.60787       -11.06890        -0.50564
H          5.08529       -11.03573        -0.72440
H          7.19271        -9.78194        -0.67093
H          8.38426        -7.61326        -0.78599
H          9.50458        -5.39449        -0.91779
H         10.12450        -3.33023        -1.95427
