         640
 CSIRO Nanostructure Databank - Neutral Graphene Oxide Data Set
C         23.04655        27.54601         1.47553
C         23.03621        28.90550         1.26848
C         23.03060        31.80614         0.85315
C         23.02877        33.16864         0.66328
C         22.99998        36.04121         0.08810
C         22.95460        37.38144        -0.12797
C         22.97612        40.30291        -0.80836
C         22.95064        41.61401        -1.19057
C         22.98760        44.52715        -0.62917
C         23.01099        45.87261        -0.31267
C         25.45561        24.70045         1.58881
C         24.27550        25.40607         1.63685
C         25.48612        27.49232         1.15561
C         24.26240        26.81098         1.42691
C         25.46421        28.90707         0.92063
C         24.23758        29.62219         0.98767
C         25.44905        31.73394         0.50123
C         24.23119        31.04834         0.77708
C         25.45064        33.15421         0.31327
C         24.22920        33.88007         0.38609
C         25.46374        35.97902         0.03474
C         24.23717        35.30759         0.21750
C         25.50500        37.44854         0.05304
C         24.15624        38.21288        -0.02483
C         25.43924        40.27813        -0.62012
C         24.18379        39.59494        -0.52509
C         25.42742        41.65080        -0.93242
C         24.20853        42.39124        -1.43464
C         25.38196        44.56888        -0.97631
C         24.18431        43.84786        -0.96187
C         25.43976        45.95998        -0.69003
C         24.22389        46.61512        -0.33142
C         25.46709        48.66041         0.09125
C         24.26032        47.98428         0.04246
C         27.99423        23.21583         1.46492
C         27.92886        24.60857         1.31242
C         26.70155        25.35089         1.34655
C         27.93683        27.45484         0.79118
C         26.70918        26.76254         1.12143
C         27.90790        28.86162         0.52721
C         26.68381        29.59580         0.61810
C         27.89977        31.69815         0.14139
C         26.67593        31.00319         0.41433
C         27.89940        33.11363        -0.04580
C         26.67666        33.84422         0.03843
C         27.90714        35.96143        -0.42962
C         26.68147        35.26055        -0.12093
C         27.88638        37.38106        -0.65429
C         26.72662        38.13563        -0.40590
C         27.95361        40.24091        -0.73370
C         26.69894        39.55653        -0.53911
C         27.97991        41.71929        -0.65862
C         26.65716        42.42326        -0.81451
C         27.92914        44.58788        -1.29257
C         26.64021        43.84591        -1.26417
C         27.93725        46.03771        -1.02467
C         26.68393        46.69306        -0.70433
C         28.00271        48.74647        -0.06039
C         26.67731        48.04336        -0.29445
C         27.96322        50.25271        -0.19053
C         30.39178        23.13313         0.91998
C         29.19341        22.50507         1.35502
C         30.36862        24.54947         0.72615
C         29.23546        25.36244         1.29138
C         30.34774        27.40467         0.29569
C         29.15354        26.74967         0.70838
C         30.34462        28.82241         0.14108
C         29.12450        29.55062         0.24896
C         30.34490        31.66998        -0.16481
C         29.11932        30.97115         0.07692
C         30.33144        33.06681        -0.37293
C         29.12483        33.80763        -0.31398
C         30.38431        35.94319        -0.66925
C         29.11932        35.23077        -0.51059
C         30.38852        37.36672        -0.87109
C         29.09781        38.05556        -1.26121
C         30.37146        40.28164        -1.25178
C         29.11700        39.54709        -0.99813
C         30.43882        41.74303        -1.13688
C         29.21486        42.47415        -1.00689
C         30.44222        44.58926        -1.56323
C         29.19905        43.84439        -1.15611
C         30.41778        46.04696        -1.15853
C         29.16762        46.70864        -0.99916
C         30.43527        48.87372        -0.62821
C         29.11588        48.21743        -0.97098
C         30.41251        50.24294        -0.27305
C         29.12056        50.93419        -0.25463
C         32.89498        20.29896         0.47027
C         31.75437        20.98722         0.88405
C         32.70359        23.06095         0.05366
C         31.61413        22.39172         0.68353
C         32.45406        24.34252        -0.42836
C         31.43605        25.20013         0.08251
C         32.79126        27.35781        -0.08947
C         31.54922        26.65254         0.02848
C         32.80739        28.79308         0.00337
C         31.58586        29.52628        -0.02160
C         32.83133        31.66075        -0.18066
C         31.58530        30.94301        -0.15252
C         32.85167        33.06194        -0.30870
C         31.60040        33.74656        -0.80449
C         32.89986        35.93678        -0.83348
C         31.58604        35.23717        -0.62957
C         32.81848        37.40634        -0.54723
C         31.61913        38.06966        -0.80825
C         32.90634        40.30001        -0.89081
C         31.67506        39.52287        -1.12276
C         32.92053        41.70727        -1.01051
C         31.67648        42.43096        -1.15212
C         32.90261        44.56694        -1.02967
C         31.69809        43.85361        -1.17361
C         32.87987        46.00199        -1.05865
C         31.65370        46.73470        -1.05491
C         32.86509        48.87636        -0.53784
C         31.65465        48.17514        -0.77295
C         32.85636        50.20961        -0.03358
C         31.60964        50.90620         0.07149
C         32.74749        52.89888         0.93169
C         31.62150        52.28786         0.50825
C         35.28253        18.84320        -0.55271
C         35.26149        20.25543        -0.32118
C         34.07105        20.94844         0.03044
C         35.28234        23.10770        -0.58206
C         34.10555        22.45490         0.20740
C         35.38123        24.59799        -0.32886
C         34.29133        25.43002        -0.63787
C         35.26102        27.37575         0.51175
C         34.07956        26.70825        -0.13516
C         35.29843        28.83358         0.15671
C         34.06268        29.51285         0.02834
C         35.29342        31.64459        -0.04780
C         34.05922        30.93573        -0.04086
C         35.31121        33.08231        -0.03209
C         34.06718        33.80237        -0.14516
C         35.22947        35.95242         0.24724
C         34.05453        35.21631        -0.18374
C         35.29003        37.44671         0.13128
C         34.03239        38.17872        -0.23066
C         35.33040        40.28452        -0.59601
C         34.10402        39.61021        -0.60245
C         35.38752        41.70406        -0.75311
C         34.15197        42.42807        -0.88561
C         35.38515        44.56213        -0.73130
C         34.15199        43.85322        -0.89260
C         35.40914        45.98394        -0.73854
C         34.16394        46.70006        -1.06402
C         35.37567        48.84745        -0.29028
C         34.15275        48.23564        -0.79924
C         35.32526        50.20632         0.13392
C         34.07934        50.86803         0.29318
C         35.26527        53.02876         0.81928
C         34.05166        52.16341         1.07577
C         35.27347        54.37985         1.05716
C         37.72579        18.81312        -0.74176
C         36.45012        18.15816        -0.78581
C         37.72496        20.21153        -0.44000
C         36.53077        20.94692        -0.32262
C         37.73543        23.06943         0.09536
C         36.56444        22.38774        -0.20078
C         37.78794        24.51178         0.19390
C         36.56991        25.24825         0.09313
C         37.77835        27.36233         0.26403
C         36.56029        26.66095         0.24764
C         37.80053        28.80347         0.10392
C         36.53511        29.51492         0.03510
C         37.73813        31.64777        -0.45406
C         36.50887        30.92535        -0.09922
C         37.78097        33.10664        -0.25208
C         36.55919        33.76786        -0.02893
C         37.82548        35.95520         0.05672
C         36.58324        35.20112         0.27001
C         37.80295        37.38769        -0.07629
C         36.59053        38.09155        -0.13994
C         37.90104        40.24073        -0.61340
C         36.57165        39.48308        -0.59298
C         37.87395        41.70945        -0.52433
C         36.62896        42.41087        -0.67772
C         37.83391        44.56991        -0.45203
C         36.62593        43.84900        -0.62503
C         37.83345        45.97387        -0.28872
C         36.60219        46.69358        -0.45807
C         37.79110        48.79925         0.12363
C         36.59119        48.12580        -0.25812
C         37.77523        50.22747         0.32251
C         36.55704        50.90882         0.32215
C         37.77531        53.10400         0.63915
C         36.50614        52.40721         0.22986
C         37.71427        54.51546         0.80547
C         36.46400        55.14414         0.94058
C         40.23715        16.08499        -1.33086
C         39.03937        16.73243        -1.11659
C         40.20512        18.95844        -1.26081
C         38.95969        18.14137        -0.96413
C         40.27197        20.26427        -0.52155
C         39.00637        20.84454        -0.08446
C         40.27702        23.02985         0.23069
C         38.99377        22.31831         0.30359
C         40.28100        24.46862         0.70578
C         38.99233        25.21772         0.41608
C         40.24767        27.39450         0.53221
C         38.99475        26.62514         0.37211
C         40.27325        28.81527         0.14122
C         39.03315        29.47174        -0.07998
C         40.30596        31.65896        -0.57659
C         39.02419        30.87939        -0.53916
C         40.26991        33.12345        -0.32918
C         39.02653        33.80385        -0.20167
C         40.28454        35.94414        -0.01711
C         39.03053        35.24170        -0.07665
C         40.28446        37.37104         0.03855
C         39.07158        38.09302        -0.12164
C         40.30357        40.24163        -0.04040
C         39.10453        39.50882        -0.22650
C         40.29814        41.66880        -0.08764
C         39.08098        42.38244        -0.32134
C         40.32765        44.55355        -0.00480
C         39.14739        43.85682        -0.62179
C         40.29848        45.94121         0.23273
C         39.04520        46.67749         0.07020
C         40.18525        48.78644         0.80046
C         38.99946        48.06387         0.28462
C         40.23210        50.26170         0.70181
C         39.01809        50.95820         0.52701
C         40.23242        53.06268         0.93293
C         39.00187        52.38300         0.67131
C         40.18059        54.51228         1.18359
C         38.95033        55.27284         0.91657
C         40.24379        57.34181         0.65232
C         39.00941        56.64898         0.79615
C         42.71593        16.10651        -1.44070
C         41.48963        16.79641        -1.32290
C         42.72736        18.90016        -1.03149
C         41.50058        18.19852        -1.14729
C         42.73982        20.30836        -0.67269
C         41.47609        20.95193        -0.38449
C         42.74010        23.07832         0.07912
C         41.46017        22.35930        -0.00200
C         42.74917        24.44499         0.25093
C         41.46525        25.20642         0.09082
C         42.80164        27.35316         0.21417
C         41.54913        26.64293         0.54865
C         42.76169        28.78536         0.03125
C         41.52969        29.45853        -0.04135
C         42.82962        31.63793        -0.10319
C         41.58079        30.89953        -0.37237
C         42.78138        33.09151        -0.35524
C         41.49073        33.82380        -0.20406
C         42.76676        35.94054         0.40600
C         41.50272        35.21804        -0.00475
C         42.74396        37.40918         0.12264
C         41.54138        38.08533         0.11885
C         42.70149        40.24464         0.44849
C         41.52918        39.54207         0.16911
C         42.71892        41.66200         0.40665
C         41.52156        42.37518         0.12363
C         42.75108        44.49585         0.38555
C         41.52413        43.81417         0.16937
C         42.74271        45.91386         0.57116
C         41.51314        46.60471         0.58438
C         42.74371        48.81517         0.99135
C         41.48622        48.03544         0.96410
C         42.70701        50.19390         1.01081
C         41.46474        50.94457         0.87411
C         42.72627        53.12877         0.95332
C         41.46564        52.37664         0.94284
C         42.74031        54.51572         0.95065
C         41.50670        55.28772         1.15259
C         42.68310        57.28334         0.22192
C         41.45731        56.68793         0.71608
C         43.91562        16.81095        -1.44749
C         45.22483        18.98855        -1.41935
C         43.94531        18.19777        -1.23807
C         45.22815        20.31127        -0.68362
C         43.97462        20.97749        -0.43911
C         45.21541        23.06919         0.09260
C         43.98593        22.35361        -0.02570
C         45.25210        24.46166         0.18018
C         44.00660        25.20532         0.56591
C         45.23241        27.35809        -0.28119
C         43.97142        26.64922         0.13491
C         45.21544        28.80717         0.14238
C         44.02502        29.50236         0.08414
C         45.28124        31.67987         0.19934
C         44.01346        30.96610         0.10356
C         45.30821        33.08179         0.07554
C         44.08392        33.83856        -0.24115
C         45.26886        35.96342         0.18542
C         44.06703        35.28330         0.02645
C         45.29100        37.39618         0.36167
C         44.04143        38.18896         0.03225
C         45.19324        40.25472         0.87072
C         43.91646        39.46271         0.88733
C         45.21721        41.62238         0.74536
C         43.96777        42.36722         0.53695
C         45.26420        44.48227         0.20777
C         43.97542        43.75312         0.45058
C         45.19940        45.93768         0.60053
C         44.00120        46.60464         0.77398
C         45.26822        48.76310         0.84481
C         44.01902        48.03496         1.28007
C         45.29590        50.22573         0.99811
C         43.97226        50.96925         1.14712
C         45.20394        53.09410         0.67206
C         43.98034        52.41435         0.89253
C         45.23313        54.52399         0.60405
C         44.01544        55.31917         1.01349
C         43.86763        56.64054         0.28973
C         47.64470        18.82804        -0.83657
C         46.48771        18.20871        -1.17539
C         47.69090        20.23742        -0.53356
C         46.45463        20.92937        -0.40103
C         47.73755        23.07546        -0.05153
C         46.48784        22.28430         0.26712
C         47.72229        24.45761        -0.03735
C         46.48540        25.20078         0.09403
C         47.73650        27.33289         0.15386
C         46.49158        26.60149         0.04432
C         47.74260        28.76218         0.35536
C         46.45596        29.47810         0.67620
C         47.71777        31.65491         0.46872
C         46.49709        30.96617         0.39897
C         47.73598        33.08905         0.42985
C         46.52004        33.80337         0.23875
C         47.73469        35.93482         0.37742
C         46.51946        35.23517         0.24124
C         47.73725        37.36121         0.61563
C         46.47837        38.05831         0.64669
C         47.69961        40.24414         1.07333
C         46.42601        39.46784         1.22080
C         47.69139        41.62841         1.11105
C         46.46942        42.36619         0.88558
C         47.68636        44.52383         0.82542
C         46.49279        43.76493         0.73284
C         47.66586        45.93335         0.63862
C         46.45706        46.63419         0.61795
C         47.66814        48.78542         0.28037
C         46.44429        48.08403         0.61264
C         47.63219        50.23197         0.11308
C         46.46618        50.96106         0.50528
C         47.62373        53.07675         0.04231
C         46.43227        52.36569         0.42221
C         47.59691        54.47613         0.02027
C         46.42649        55.18138         0.32613
C         50.18829        20.23929        -0.35840
C         48.94653        20.92779        -0.34085
C         50.22517        23.05181        -0.14672
C         48.97110        22.34696        -0.20119
C         50.23837        24.46485        -0.08879
C         48.97079        25.21815        -0.40947
C         50.19727        27.30153         0.53198
C         48.93810        26.63424         0.08871
C         50.21353        28.79554         0.28820
C         48.96013        29.48547         0.37858
C         50.19851        31.61113         0.53746
C         48.97466        30.92118         0.48000
C         50.20384        33.06781         0.93426
C         48.95852        33.81498         0.52636
C         50.23447        35.96592         0.21867
C         48.95994        35.20162         0.44154
C         50.21821        37.38522         0.74865
C         48.96337        38.03530         0.87557
C         50.26535        40.23480         1.21320
C         48.93333        39.46635         1.25732
C         50.22551        41.66909         1.02922
C         48.97330        42.35954         1.28162
C         50.22491        44.55763         0.70698
C         48.96936        43.88542         1.15514
C         50.17991        45.93564         0.40271
C         48.94947        46.71204         0.80427
C         50.06230        48.72073        -0.27740
C         48.87095        48.08917         0.19168
C         49.93898        50.10860        -0.86281
C         48.78416        50.90438        -0.30123
C         50.03620        52.97633        -0.60037
C         48.82403        52.33612        -0.30437
C         51.39586        20.90983        -0.24741
C         52.71961        23.02965        -0.08334
C         51.45851        22.31794        -0.14871
C         52.72829        24.44820         0.03557
C         51.46745        25.18034         0.04053
C         52.69109        27.34227         0.28305
C         51.44824        26.57495         0.14695
C         52.68895        28.79045        -0.16539
C         51.41323        29.50207         0.23565
C         52.69704        31.61471         0.50917
C         51.42862        30.91971         0.39852
C         52.70267        33.06537         0.60352
C         51.48885        33.79181         0.61274
C         52.70773        35.91534         0.50387
C         51.48968        35.19566         0.53789
C         52.71032        37.35461         0.58054
C         51.45531        38.08014         0.79677
C         52.69391        40.23783         0.73314
C         51.50200        39.49808         0.92199
C         52.71019        41.64609         0.64451
C         51.51652        42.43768         1.12593
C         52.60120        44.48938         0.10514
C         51.42680        43.83973         0.57154
C         52.55144        45.87890        -0.22159
C         51.33320        46.60773        -0.04964
C         52.47990        48.69729        -0.80970
C         51.27184        48.02493        -0.36382
C         52.46511        50.10042        -1.04104
C         51.24113        50.86047        -0.86739
C         51.22349        52.24245        -0.82381
C         55.16661        23.04556        -0.05493
C         53.96582        22.35822        -0.13528
C         55.19537        24.45063         0.09535
C         53.96199        25.13467         0.13534
C         55.20674        27.34957        -0.17596
C         53.97788        26.60491         0.29380
C         55.17175        28.80654         0.24094
C         53.96341        29.49974         0.24805
C         55.17555        31.61610         0.92489
C         53.91001        30.90682         0.49950
C         55.18456        33.07788         0.56082
C         53.94544        33.77526         0.53703
C         55.17113        35.91037         0.37807
C         53.94147        35.20133         0.47991
C         55.15911        37.33845         0.34857
C         53.92425        38.03801         0.52482
C         55.15858        40.21095         0.18542
C         54.00184        39.50650         0.84298
C         55.09927        41.61086        -0.02746
C         53.87969        42.34173         0.21882
C         54.99725        44.42563        -0.52242
C         53.83525        43.75160        -0.04704
C         54.94741        45.83150        -0.81530
C         53.73486        46.55375        -0.67103
C         54.88063        48.64087        -1.37039
C         53.69252        47.96442        -0.95398
C         54.83057        50.03418        -1.60299
C         53.65913        50.74622        -1.42996
C         57.68181        24.51697         0.46609
C         56.45332        25.19920         0.25155
C         57.67040        27.33254         0.36223
C         56.46248        26.60587         0.21175
C         57.67274        28.77392         0.36802
C         56.43121        29.50332         0.39804
C         57.67048        31.62067         0.48970
C         56.44392        30.89506         0.55611
C         57.66292        33.05594         0.43748
C         56.40241        33.77115         0.44485
C         57.62777        35.91469         0.17675
C         56.40200        35.19699         0.32653
C         57.60331        37.33967         0.02561
C         56.37276        38.05302         0.14329
C         57.54814        40.17676        -0.39335
C         56.35037        39.48693        -0.01560
C         57.50058        41.58351        -0.63589
C         56.27089        42.30116        -0.47123
C         57.40580        44.38457        -1.14757
C         56.22303        43.70370        -0.71006
C         57.35539        45.78708        -1.41996
C         56.13461        46.51080        -1.26190
C         57.29973        48.55025        -1.97645
C         56.10903        47.90338        -1.53907
C         58.87089        25.20749         0.58424
C         60.11603        27.35434         0.62486
C         58.89440        26.62369         0.52714
C         60.11918        28.72447         0.56339
C         58.90239        29.46996         0.44976
C         60.11071        31.65902         0.34135
C         58.90368        30.91226         0.42255
C         60.09699        33.03318         0.27785
C         58.87579        33.76619         0.30105
C         60.05404        35.94696        -0.04542
C         58.86605        35.20992         0.15138
C         60.02727        37.31757        -0.25276
C         58.81626        38.04309        -0.23733
C         59.93891        40.18078        -0.87649
C         58.77713        39.46704        -0.50018
C         59.89213        41.53533        -1.14349
C         58.68595        42.26925        -1.03235
C         59.78882        44.39103        -1.74483
C         58.63280        43.68279        -1.30911
C         59.74219        45.73874        -2.01209
C         58.52996        46.46346        -1.85572
C         58.47588        47.85508        -2.13170
O         37.31203        39.70181        -1.85219
O         49.02459        43.26477         2.48250
O         44.78981        50.63152         2.33653
O         53.40874        27.10009         1.55764
O         40.94914        27.03369         1.79767
O         34.47882        38.05767         1.20395
O         40.84378        54.95786         2.41435
O         40.61438        48.29775         2.12491
O         27.30031        42.26859         0.51755
O         49.63524        39.78274         2.50067
O         33.27653        24.86120        -1.43574
O         43.51154        33.49079        -1.57578
O         31.09078        39.77797        -2.46029
O         35.84224        35.51008         1.49723
O         24.89248        38.04308         1.23581
O         41.10362        31.24157        -1.73943
O         38.24974        31.14055        -1.75651
O         34.29656        47.67440        -2.14532
O         27.23366        44.15931        -2.56023
O         38.97368        21.28411         1.33661
O         45.23439        19.32697        -2.86350
H         46.05324        19.84111        -3.03004
O         50.14243        33.05655         2.41121
H         50.89616        32.51723         2.73218
O         54.31269        39.55193         2.29272
H         54.11519        40.46143         2.60604
O         39.42102        43.91486        -2.08219
H         38.69605        43.42980        -2.53271
O         55.15416        31.59177         2.40969
H         54.36665        32.10276         2.69472
O         46.33567        39.22968         2.69217
H         47.24673        39.09211         3.03562
O         24.36587        42.48907        -2.90002
H         24.35899        41.57728        -3.26085
O         35.07781        22.87182        -1.99406
H         34.34664        23.46687        -2.28272
O         40.07295        19.32274        -2.69691
H         40.18772        18.49760        -3.21533
O         34.42911        22.70405         1.60801
H         33.77162        22.22764         2.15789
O         45.44009        44.46889        -1.26144
H         44.61880        44.83019        -1.65815
O         50.27923        36.13189        -1.25472
H         51.10980        36.60920        -1.46819
O         44.08413        47.94381         2.74031
H         44.25683        48.86023         3.06633
O         31.67906        33.54593        -2.27407
H         32.37771        34.17328        -2.59514
O         44.20652        55.66395         2.43075
H         44.08558        54.84429         2.95572
O         46.54659        22.01094         1.71688
H         47.37529        21.51192         1.88171
O         42.75948        35.87351         1.89915
H         43.05511        36.75156         2.23758
O         28.97089        37.91992        -2.72888
H         29.70247        38.46341        -3.10886
O         44.19190        38.62896        -1.34755
H         44.23906        37.83406        -1.91922
O         35.04217        27.30253         1.97462
H         35.81971        27.71297         2.40907
O         28.77466        48.63026        -2.32504
H         29.39143        48.18364        -2.94261
O         49.60016        49.88914        -2.29466
H         49.55661        50.77484        -2.71455
O         29.56379        25.58419         2.72513
H         29.61785        24.69818         3.14363
O         43.65842        39.01626         2.25382
H         44.50134        39.09681         2.76376
O         28.38873        48.42250         1.30640
H         27.67313        48.72505         1.90330
O         41.22738        25.30615        -1.34700
H         41.26089        24.40218        -1.72717
O         36.39324        52.65814        -1.24016
H         36.37454        53.63299        -1.35683
O         33.19103        35.84094        -2.32681
H         32.54733        36.43373        -2.77566
O         44.05967        25.26612         2.04275
H         44.07540        24.34393         2.37852
O         45.21130        27.38142        -1.76682
H         44.43643        27.91744        -2.04281
O         30.43231        44.61934        -3.04480
H         30.29921        43.69901        -3.35774
O         48.95512        25.32549        -1.89265
H         48.86611        24.41565        -2.24890
O         50.19640        27.19578         2.02012
H         51.12161        27.33782         2.32254
O         55.15613        27.31527        -1.63718
H         55.95068        27.77828        -1.97572
O         46.32520        29.36301         2.14944
H         47.15375        29.70774         2.54658
O         51.73983        42.60973         2.57962
H         50.87885        42.93188         2.94992
O         34.14651        51.76124         2.49477
H         33.33565        51.25317         2.71022
O         40.47303        24.41231         2.13745
H         39.75922        23.86149         2.52135
O         52.66181        28.74614        -1.62325
H         52.63674        29.66840        -1.95317
O         49.08659        46.92981         2.25384
H         49.92946        47.40751         2.40438
H         22.10864        27.01165         1.68493
H         22.07760        29.43792         1.31897
H         22.07748        31.30888         1.07463
H         22.07679        33.70820         0.75020
H         22.05791        35.47851         0.04186
H         21.99507        37.85057        -0.38628
H         22.01778        39.77669        -0.69147
H         21.98734        42.08360        -1.43434
H         22.03156        43.98611        -0.61359
H         22.07849        46.38802        -0.04030
H         25.43110        23.61588         1.75875
H         23.32781        24.88681         1.83993
H         25.47391        49.70487         0.43462
H         23.32836        48.49272         0.32788
H         27.07734        22.63915         1.65170
H         27.00680        50.79514        -0.18788
H         29.17478        21.41805         1.51153
H         29.10368        52.03220        -0.30770
H         32.87792        19.20036         0.52490
H         30.90916        20.40707         1.27953
H         32.68891        53.93969         1.27977
H         30.68142        52.85684         0.49150
H         34.33185        18.29239        -0.58411
H         34.36944        54.89912         1.40480
H         36.39864        17.08253        -1.00396
H         36.41078        56.22490         1.12555
H         40.25619        14.99167        -1.44493
H         38.12409        16.12862        -1.03582
H         40.21780        58.40369         0.36697
H         38.08414        57.22431         0.65226
H         42.71461        15.01493        -1.57193
H         42.61874        58.27598        -0.24996
H         44.84562        16.25401        -1.62110
H         44.76503        57.12919        -0.11531
H         48.56540        18.23172        -0.77089
H         46.51325        17.13658        -1.41307
H         48.49886        55.04856        -0.23241
H         46.46714        56.27866         0.33657
H         50.20879        19.14540        -0.44933
H         50.10743        54.07134        -0.58341
H         52.32076        20.31774        -0.25503
H         52.15867        52.81214        -0.91830
H         56.10325        22.47432        -0.10763
H         53.99738        21.26564        -0.24212
H         55.72728        50.57872        -1.92374
H         53.66337        51.82603        -1.62823
H         57.69534        23.42068         0.53066
H         57.29361        49.62450        -2.20001
H         59.81436        24.66139         0.72795
H         61.05936        26.80228         0.74497
H         61.07723        29.25536         0.64029
H         61.07780        31.14073         0.30175
H         61.05505        33.56269         0.19623
H         61.02710        35.43910        -0.05957
H         60.97993        37.83579        -0.42378
H         60.90098        39.66116        -0.97397
H         60.82115        42.03864        -1.44015
H         60.74069        43.86103        -1.87740
H         60.64353        46.26975        -2.35013
H         59.38560        48.37069        -2.47102
