         480
 CSIRO Nanostructure Databank - Neutral Graphene Oxide Data Set
C         37.50158        50.25350         0.94311
C         36.33250        50.93053         1.29750
C         37.57407        52.99443         1.50314
C         36.36895        52.30652         1.55879
C         39.98155        48.85326         0.00555
C         39.95050        50.29045         0.31418
C         38.72534        50.92981         0.86600
C         40.05414        52.98931         1.26206
C         38.77976        52.31959         1.18685
C         40.16933        54.39019         1.20239
C         42.44864        48.81225         0.02707
C         41.15129        48.18365        -0.12953
C         42.52646        50.16421         0.42975
C         41.28964        50.95626         0.56879
C         42.59885        52.85056         1.69117
C         41.25144        52.11479         1.56581
C         42.58228        54.34969         1.81001
C         41.35140        55.05578         1.44143
C         44.86568        45.94928        -0.37484
C         43.67475        46.66028        -0.27389
C         44.92622        48.82077        -0.39895
C         43.65039        48.06034        -0.15690
C         44.97371        50.16075         0.29428
C         43.79672        50.79685         0.65947
C         45.12440        52.96117         1.04548
C         43.87542        52.16265         1.24885
C         45.15928        54.27733         1.50900
C         43.92230        55.07562         1.75845
C         45.17481        57.07376         1.02889
C         43.99194        56.49599         1.35864
C         47.42199        44.44356        -0.38621
C         47.36766        45.83336        -0.37021
C         46.13616        46.59684        -0.31913
C         47.41791        48.71465        -0.11930
C         46.18181        48.00508        -0.21744
C         47.43305        50.14765         0.00765
C         46.23048        50.86654         0.28575
C         47.45785        52.94689        -0.00692
C         46.27401        52.27439         0.46532
C         47.46925        54.37731        -0.44626
C         46.39257        55.05048         1.60121
C         47.67520        57.10689         0.89757
C         46.43153        56.38507         1.20875
C         47.75214        58.49045         1.31834
C         49.87518        44.33063        -0.18981
C         48.63216        43.71393        -0.29850
C         49.92524        45.79053        -0.37296
C         48.63436        46.57828        -0.44288
C         49.87526        48.72730        -0.02511
C         48.64910        48.02654        -0.15026
C         49.90834        50.12861        -0.11547
C         48.66942        50.83775        -0.11376
C         49.87035        52.95685        -0.80285
C         48.64478        52.25722        -0.24253
C         49.90780        54.43942        -0.45725
C         48.75159        55.11229        -0.17194
C         49.94225        57.31031        -0.10492
C         48.74127        56.51427         0.23258
C         49.96740        58.76808         0.29373
C         48.83544        59.27164         1.08333
C         52.34894        41.54143         0.32214
C         51.15379        42.23099         0.19149
C         52.37446        44.35047         0.07906
C         51.12035        43.63435         0.05197
C         52.40462        45.76609         0.07362
C         51.12771        46.49483         0.16055
C         52.41467        48.73035         0.53687
C         51.10368        47.97761         0.33185
C         52.40982        50.15041        -0.00949
C         51.17217        50.85926        -0.17978
C         52.40139        52.96830        -0.45263
C         51.16665        52.23976        -0.43976
C         52.43504        54.38621        -0.51710
C         51.18324        55.17591        -0.82199
C         52.43143        57.23895        -0.14754
C         51.23341        56.60167        -0.31333
C         52.53019        58.63565         0.44966
C         51.27565        59.46028         0.34934
C         52.57059        61.52465         0.27831
C         51.34531        60.83914         0.37643
C         54.91465        40.09501         0.54862
C         54.84161        41.47580         0.46076
C         53.59714        42.21026         0.30705
C         54.85467        44.35528         0.08123
C         53.60953        43.62572         0.17345
C         54.86855        45.76975        -0.07104
C         53.61837        46.51811         0.03335
C         54.94454        48.61795         0.27596
C         53.62173        47.91490         0.11338
C         54.89681        50.09980        -0.07381
C         53.63123        50.81455        -0.16485
C         54.86576        52.94228        -0.47049
C         53.64211        52.24350        -0.37328
C         54.89529        54.35258        -0.49358
C         53.66147        55.08335        -0.46057
C         54.90744        57.20741        -0.34623
C         53.67963        56.51937        -0.34827
C         54.93583        58.67331        -0.25533
C         53.76791        59.39444         0.02785
C         55.00920        61.52803        -0.21627
C         53.78428        60.82792         0.03592
C         55.07737        62.97069        -0.35348
C         57.37309        40.01657         0.41778
C         56.14569        39.38754         0.54322
C         57.42204        41.48509         0.47664
C         56.09271        42.24643         0.52798
C         57.31295        44.32053        -0.12017
C         56.08912        43.66202         0.13305
C         57.30796        45.73191        -0.34106
C         56.09402        46.44174        -0.26149
C         57.36576        48.62225        -0.32660
C         56.04198        47.92648        -0.53760
C         57.35473        49.99569        -0.18140
C         56.10072        50.74154        -0.23319
C         57.36361        52.95268        -0.18467
C         56.15274        52.18257        -0.67920
C         57.40188        54.39166        -0.47835
C         56.14327        55.08324        -0.52607
C         57.42211        57.23600        -0.31022
C         56.12398        56.48553        -0.46934
C         57.33032        58.61439        -0.92137
C         56.13617        59.37562        -0.52649
C         57.46404        61.46661        -0.61219
C         56.20176        60.78640        -0.45775
C         57.54074        62.87355        -0.08876
C         56.26410        63.62349        -0.38166
C         59.93117        37.27655         0.70439
C         58.71147        37.92384         0.57543
C         59.85321        40.03636         0.13581
C         58.64137        39.31296         0.34786
C         59.83206        41.44043        -0.19781
C         58.60342        42.18970        -0.05811
C         59.69515        44.25060        -0.87883
C         58.53613        43.56015        -0.28558
C         59.75791        45.72416        -0.79699
C         58.56464        46.43992        -0.55917
C         59.83102        48.52381        -0.59837
C         58.58763        47.86375        -0.48495
C         59.90484        49.97105        -0.30504
C         58.63410        50.71652        -0.01197
C         59.91885        52.91166        -0.39838
C         58.66828        52.21553        -0.03921
C         59.89510        54.30722        -0.61587
C         58.64289        55.05670        -0.57074
C         59.81799        57.17864        -1.07610
C         58.65442        56.47793        -0.71988
C         59.86338        58.59481        -1.21780
C         58.59474        59.34951        -1.25876
C         59.84991        61.51881        -1.21294
C         58.62683        60.81252        -1.03210
C         59.91131        62.92669        -0.99536
C         58.80417        63.60733        -0.46260
C         60.07816        65.66085        -0.10076
C         58.92156        64.94575         0.02101
C         62.49549        36.01680         1.32477
C         62.42272        37.34099         0.86170
C         61.14669        37.98067         0.59153
C         62.33114        40.07653         0.01954
C         61.10576        39.36242         0.24162
C         62.29370        41.43085        -0.41521
C         61.03239        42.08868        -0.54365
C         62.27027        44.21252        -1.18430
C         60.99705        43.47649        -1.02553
C         62.25779        45.66087        -1.20197
C         61.00690        46.38639        -0.93759
C         62.29456        48.53431        -0.77398
C         61.01699        47.79434        -0.80333
C         62.24263        49.96780        -1.19724
C         61.07612        50.75756        -0.74380
C         62.43520        52.83201        -0.87992
C         61.09483        52.13512        -0.72149
C         62.30796        54.31331        -1.20395
C         61.08937        54.98916        -1.02138
C         62.35456        57.19351        -1.56781
C         61.02437        56.40539        -1.40641
C         62.32125        58.63742        -1.34542
C         61.07747        59.30037        -1.35836
C         62.41798        61.48764        -1.65180
C         61.06541        60.76528        -1.57636
C         62.49289        63.02424        -1.70255
C         61.12801        63.69654        -1.36306
C         62.50586        65.81447        -0.82065
C         61.17870        65.14790        -0.91774
C         62.51886        67.26256        -0.75592
C         64.91031        36.16628         1.57224
C         63.71528        35.45285         1.69436
C         64.88839        37.47527         1.02070
C         63.63454        38.07885         0.70481
C         64.79467        40.14565         0.00285
C         63.58511        39.43082         0.23287
C         64.74381        41.44979        -0.56750
C         63.51224        42.10641        -0.76729
C         64.66881        44.14172        -1.75990
C         63.45803        43.48482        -1.23602
C         64.68031        45.67883        -1.80117
C         63.46290        46.35386        -1.33363
C         64.77469        48.55075        -1.45342
C         63.55900        47.79375        -1.05393
C         64.77136        49.91232        -1.64246
C         63.47238        50.63763        -1.71848
C         64.76966        52.85933        -1.74977
C         63.41878        52.15539        -1.87203
C         64.64072        54.21637        -1.91179
C         63.48839        54.99481        -1.55995
C         64.73323        57.07805        -0.89191
C         63.60955        56.44048        -1.37478
C         64.63992        58.52350        -0.41901
C         63.54458        59.34307        -1.08583
C         64.86120        61.46785        -0.93332
C         63.60305        60.72113        -1.21052
C         64.80256        62.92216        -0.63312
C         63.65688        63.63317        -0.92291
C         65.03060        65.74491        -0.83113
C         63.66590        65.08205        -0.79462
C         64.97497        67.24825        -0.54960
C         63.67341        67.94542        -0.61568
C         67.39631        33.44455         2.31047
C         66.25506        34.15634         2.41188
C         67.35872        36.04760         1.16920
C         66.22138        35.63514         2.11937
C         67.40000        37.56057         1.01786
C         66.11424        38.22060         0.81342
C         67.28531        40.34513         0.24630
C         66.05232        39.53577         0.34124
C         67.30090        41.56285        -0.55736
C         66.00891        42.04722        -1.06943
C         67.26094        44.14432        -1.87437
C         65.96995        43.39111        -1.73429
C         67.24638        45.67945        -1.90217
C         65.97468        46.40899        -1.71107
C         67.25325        48.50298        -1.39310
C         66.00371        47.77963        -1.53098
C         67.26375        49.90540        -1.32912
C         66.05858        50.65158        -1.74676
C         67.32002        52.82213        -1.11748
C         66.10286        52.18086        -1.75319
C         67.29193        54.22046        -0.68057
C         66.40209        55.14912        -1.14066
C         67.05492        57.05080         0.24093
C         65.85480        56.26151        -0.26434
C         67.13186        58.51668        -0.00131
C         65.98058        59.21896        -0.34859
C         67.11645        61.40379         0.29440
C         66.06754        60.69054        -0.48509
C         67.08507        62.76554         0.46727
C         65.97748        63.57681        -0.04102
C         67.19473        65.65065         0.58269
C         66.03950        64.96505         0.01800
C         67.25143        67.07782         0.63448
C         66.09499        67.90099         0.19023
C         66.98126        69.80327         1.42851
C         65.90775        69.17438         0.93577
C         69.96279        31.86460         2.36567
C         69.87671        33.18979         1.74332
C         68.65718        34.04421         1.88788
C         69.88668        36.01084         0.91597
C         68.67465        35.36561         1.52757
C         69.91002        37.55020         1.10596
C         68.58516        38.20360         0.77887
C         69.84273        40.24820        -0.08970
C         68.62617        39.64870         0.49307
C         69.79756        41.53575        -0.62714
C         68.52030        42.22196        -0.86151
C         69.78394        44.20578        -1.89571
C         68.51448        43.48419        -1.49926
C         69.73221        45.69355        -1.55759
C         68.51328        46.37346        -1.56285
C         69.67422        48.47897        -1.01771
C         68.47420        47.77592        -1.30870
C         69.60962        49.86193        -0.68708
C         68.43953        50.60259        -0.92294
C         69.58879        52.68151        -0.10495
C         68.40260        52.04385        -0.71073
C         69.56240        54.03449         0.26570
C         68.20861        54.68213         0.43509
C         69.59973        56.92032         0.43969
C         68.27279        56.22699         0.52364
C         69.59990        58.43307         0.46306
C         68.33155        59.17814         0.35283
C         69.52740        61.28250         1.17843
C         68.26305        60.58510         0.75223
C         69.51673        62.75325         1.23930
C         68.16777        63.43798         1.30543
C         69.48199        65.59595         1.47663
C         68.28858        64.92467         1.08160
C         69.51466        67.02175         1.53618
C         68.36230        67.74931         1.14151
C         69.40474        69.85807         2.10461
C         68.36751        69.27204         1.12982
C         69.52624        71.35201         1.96104
C         72.39601        31.85381         2.15005
C         71.14943        31.20529         2.45784
C         72.43291        33.14897         1.73844
C         71.20174        33.86489         1.37652
C         72.34827        36.04072         0.68015
C         71.21607        35.38955         1.43284
C         72.27147        37.32395         0.24082
C         71.09469        38.14729         0.36976
C         72.26279        40.13501        -0.53620
C         71.06717        39.47381        -0.08160
C         72.25282        41.44482        -0.90886
C         71.03077        42.19472        -1.00816
C         72.23570        44.31775        -1.43348
C         71.03947        43.53988        -1.39678
C         72.20196        45.68827        -1.44917
C         70.95854        46.41631        -1.38576
C         72.13344        48.62302        -1.01871
C         70.93221        47.80389        -1.10971
C         72.08539        49.89603        -0.56699
C         70.80239        50.43335         0.02677
C         71.80207        52.51441         0.97229
C         70.76017        51.92553         0.19128
C         71.85061        53.85873         1.20853
C         70.88242        54.74078         0.47398
C         71.84352        56.89287         1.41538
C         70.78903        56.18531         0.92809
C         71.83102        58.33756         1.49555
C         70.79749        59.09545         1.03324
C         71.98948        61.31711         1.53364
C         70.85003        60.60055         0.85759
C         71.90509        62.63666         1.78913
C         70.68453        63.41488         1.56670
C         71.84574        65.55346         2.12286
C         70.68193        64.85270         1.75293
C         71.86767        66.93749         2.21613
C         70.71857        67.71425         1.93746
C         71.93017        69.87447         2.17824
C         70.73275        69.13756         2.03722
C         71.93718        71.25833         2.20490
C         70.71913        71.99417         2.05989
O         69.84878        57.65666        -0.79356
O         65.76361        54.93901        -2.35333
O         43.22437        54.84796         3.03317
O         67.17463        35.54946        -0.13688
O         65.97244        42.18816        -2.55770
O         50.85133        47.08700         1.49854
O         57.69963        58.81261        -2.31319
O         59.47729        50.23081         1.08681
O         67.32204        44.89795        -3.14508
O         70.39946        33.23592         0.35790
O         43.45128        52.20541         2.67924
O         63.16393        48.18433         0.34168
O         66.31926        51.41388        -2.98463
O         68.66551        60.70455         2.21581
O         66.02038        68.00729        -1.28600
O         68.01137        40.48624         1.53391
O         64.47318        44.87280        -3.00539
O         49.65052        58.36634        -1.09657
O         67.44368        56.72699         1.62638
O         56.89950        42.02215         1.73789
O         49.44336        46.27167        -1.66012
O         40.59459        51.17312        -0.69293
O         65.94350        61.14849        -1.89077
O         46.59939        54.83715        -1.17274
O         62.51186        50.02068        -2.66004
O         57.91533        52.70398         1.14201
O         61.58188        56.73411        -2.71302
O         60.09680        43.69279        -2.17804
O         61.72888        61.04490        -2.86517
O         60.80314        64.77742        -2.28934
O         69.88195        44.11840        -3.35848
H         69.01863        44.43932        -3.72086
O         57.60348        62.74610         1.38988
H         56.80107        62.25296         1.66655
O         65.23555        55.60651         0.88153
H         65.96335        55.19389         1.41726
O         62.95850        52.45902        -3.20252
H         62.58438        51.63289        -3.58870
O         57.56361        57.50340         1.13095
H         57.56023        56.63957         1.59643
O         65.51068        65.58728        -2.19201
H         66.06445        66.37665        -2.39117
O         62.80784        63.36785        -3.06416
H         62.26089        62.79284        -3.64500
O         71.46185        54.89422        -0.89027
H         71.48653        53.99925        -1.29321
O         55.29744        48.50621         1.67774
H         54.50173        48.79386         2.18897
O         40.98044        51.50332         2.85790
H         41.84117        51.45633         3.33782
O         70.74840        49.89448         1.40171
H         70.80354        48.91744         1.32921
O         56.37054        52.13016        -2.13260
H         55.59903        51.67988        -2.53803
O         52.58032        48.91289         1.98876
H         52.11531        48.14534         2.40535
O         67.73635        63.27982         2.70470
H         67.86872        62.32371         2.92365
O         71.41411        35.64379         2.84385
H         71.22426        36.59606         3.02225
O         71.00307        60.80448        -0.58259
H         71.73309        60.23345        -0.90177
O         51.13805        55.26862        -2.28570
H         50.88227        54.37447        -2.62277
O         47.50027        54.45166         2.12958
H         47.27206        53.55247         2.44154
O         55.68036        48.08960        -1.94166
H         56.33368        47.59840        -2.48273
O         49.77579        52.86046        -2.26991
H         48.88249        53.17355        -2.53173
O         44.90253        49.15756        -1.85149
H         44.85395        48.30865        -2.34164
O         52.70362        58.38570         1.90349
H         52.87577        59.25275         2.32946
O         68.73625        69.70022        -0.20190
H         68.06932        69.34507        -0.82872
O         69.79810        35.78268        -0.50210
H         68.83296        35.58798        -0.69645
O         68.85968        69.59865         3.44151
H         69.50560        69.93638         4.09714
O         70.11072        37.87566         2.52287
H         69.85217        38.81296         2.65784
O         63.07526        52.74217         0.42425
H         62.46907        53.12002         1.09573
O         66.46256        36.34145         3.37170
H         65.79524        36.04294         4.02393
O         67.63324        54.20177         1.68969
H         68.15687        54.57294         2.43105
O         64.18443        58.41335         0.98461
H         64.59311        57.60159         1.36796
H         37.44407        49.18193         0.70748
H         35.38036        50.38516         1.35086
H         37.59796        54.06359         1.75561
H         35.44547        52.83892         1.82491
H         39.03418        48.30315        -0.08545
H         39.27645        54.98540         0.96210
H         41.11512        47.11353        -0.37490
H         41.35508        56.15332         1.43953
H         44.81663        44.85554        -0.45120
H         42.73730        46.08842        -0.23056
H         45.19731        58.12229         0.70131
H         43.07253        57.09518         1.36577
H         46.48940        43.86268        -0.39334
H         46.92459        58.88794         1.92344
H         48.55541        42.61937        -0.23937
H         48.90308        60.27379         1.53135
H         52.31439        40.44983         0.43398
H         50.21548        41.66020         0.19215
H         52.56248        62.62183         0.30221
H         50.41677        61.42774         0.41468
H         53.99437        39.49496         0.55718
H         54.14516        63.53894        -0.48398
H         56.09128        38.29033         0.55923
H         56.29402        64.71398        -0.51979
H         59.93047        36.20046         0.92073
H         57.78968        37.34129         0.70461
H         60.20012        66.61572         0.43005
H         58.08790        65.35988         0.60554
H         61.58541        35.41411         1.44102
H         61.56440        67.80033        -0.83847
H         63.71656        34.42903         2.09124
H         63.67815        69.04379        -0.59813
H         67.37980        32.37509         2.56513
H         65.35376        33.66418         2.80837
H         66.86773        70.73178         2.00675
H         64.89256        69.56617         1.09716
H         69.05594        31.40035         2.77899
H         68.60150        71.93425         1.83680
H         73.33092        31.32110         2.37699
H         71.18084        30.19606         2.89337
H         73.39159        33.68724         1.69706
H         73.28041        35.47719         0.52093
H         73.14463        37.73775        -0.28421
H         73.21870        39.59642        -0.53175
H         73.19719        41.91317        -1.21508
H         73.21314        43.82381        -1.34060
H         73.14931        46.24180        -1.40991
H         73.08954        48.20895        -1.36948
H         72.99873        50.50741        -0.52032
H         72.55870        51.84867         1.41208
H         72.67031        54.29805         1.79386
H         72.76680        56.37938         1.71931
H         72.73157        58.81926         1.90249
H         72.93610        60.78803         1.71561
H         72.78111        63.14442         2.21480
H         72.77373        65.00961         2.34121
H         72.80078        67.42631         2.52640
H         72.89332        69.34559         2.21197
H         72.88852        71.80089         2.28773
H         70.76499        73.09126         2.00265
