         349
 CSIRO Nanostructure Databank - Neutral Graphene Oxide Data Set
C          1.44156         1.82735         1.09017
C          1.35496         3.19204         1.12604
C          2.67351         1.14887         0.83743
C          2.56324         4.00329         0.89018
C          1.34565         6.28638         1.00086
C          1.30848         7.65300         0.82616
C          2.58531         5.51542         0.86283
C          2.47184         8.42646         0.60017
C          1.32185        10.59479         1.10908
C          1.34061        11.97177         1.24514
C          2.48912         9.86072         0.73030
C          2.50437        12.73512         1.00369
C          1.46540        14.85945         1.84885
C          1.52625        16.22095         2.08226
C          2.54620        14.16867         1.23428
C          2.68466        16.96483         1.75196
C          2.73998        18.38785         1.95105
C          3.80003         1.84028         0.40539
C          3.64715         3.29667         0.12905
C          5.06043         1.22771         0.20798
C          4.76802         4.07481        -0.48075
C          3.74470         6.22312         0.23676
C          3.79902         7.70491         0.54142
C          4.80045         5.56295        -0.31042
C          4.86490         8.44235        -0.22969
C          3.67615        10.59861         0.48355
C          3.69729        12.03675         0.57585
C          4.80354         9.92113        -0.19436
C          4.85453        12.76492         0.24831
C          3.70573        14.91145         0.89699
C          3.79575        16.28772         1.18217
C          4.82629        14.26205         0.11686
C          5.00294        17.04331         0.84060
C          3.84368        19.11502         1.59677
C          5.01518        18.49052         1.04682
C          6.18596         1.93613        -0.23648
C          6.05685         3.33312        -0.73913
C          7.45304         1.32306        -0.28636
C          7.32006         4.10456        -1.01968
C          5.88969         6.31872        -1.06128
C          5.97584         7.78456        -0.65559
C          7.25814         5.60569        -1.13558
C          7.26731         8.53805        -0.69731
C          5.99269        10.71736        -0.61974
C          6.17032        12.05334         0.08177
C          7.23604         9.98609        -1.15709
C          7.30304        12.87871        -0.49545
C          6.18442        14.88361         0.47445
C          6.13247        16.39944         0.39637
C          7.30326        14.23648        -0.31451
C          7.26236        17.21892        -0.19834
C          6.18791        19.21779         0.86565
C          7.38538        18.60645         0.39059
C          8.65213         2.04433        -0.47219
C          8.62630         3.48151        -0.68049
C          9.89882         1.37291        -0.43553
C          9.80219         4.21892        -0.59970
C          8.55084         6.34484        -1.01804
C          8.56123         7.80345        -0.71632
C          9.83694         5.63222        -0.80813
C          9.82902         8.51225        -0.99705
C          8.51541        10.73449        -0.88911
C          8.51311        12.11035        -0.82484
C          9.83585         9.99263        -0.68946
C          9.78866        12.81234        -0.81102
C          8.50292        15.04923        -0.62339
C          8.57491        16.48289        -0.22811
C          9.77890        14.28556        -0.79075
C          9.76343        17.16141        -0.17884
C          8.60468        19.26411         0.39673
C          9.83997        18.59564         0.08241
C         11.11705         2.07366        -0.37343
C         11.03818         3.55363        -0.03626
C         12.34166         1.40094        -0.41603
C         12.33759         4.32104        -0.31555
C         11.03048         6.35809        -0.96320
C         10.99598         7.80880        -1.14837
C         12.30390         5.69103        -0.87184
C         12.25682         8.51333        -1.62786
C         10.97531        10.71515        -1.39913
C         10.99040        12.15443        -0.94731
C         12.29926         9.98783        -1.26623
C         12.24547        12.85823        -0.88737
C         11.05121        14.96131        -0.43436
C         11.05394        16.43322        -0.20621
C         12.28448        14.21533        -0.72335
C         12.30119        17.18940        -0.40482
C         11.07823        19.23658         0.09408
C         12.31978        18.55879        -0.20969
C         13.59968         2.06682        -0.43019
C         13.63402         3.54931        -0.40989
C         14.80165         1.38601        -0.52441
C         14.83525         4.22850        -0.93049
C         13.52058         6.33241        -1.19333
C         13.55173         7.77887        -1.34635
C         14.76071         5.59580        -1.20434
C         14.73179         8.48166        -1.28693
C         13.46493        10.64464        -1.07082
C         13.51958        12.09502        -0.65444
C         14.75388         9.90846        -0.80799
C         14.77988        12.86191        -1.02880
C         13.52621        14.96670        -0.95050
C         13.48954        16.46297        -0.89584
C         14.81209        14.22816        -0.91196
C         14.79494        17.19932        -0.92720
C         13.59296        19.27816        -0.34352
C         14.76133        18.65262        -0.66387
C         16.05888         2.07681        -0.63580
C         16.07783         3.49253        -0.92492
C         17.26392         1.39007        -0.49424
C         17.31615         4.14526        -1.10480
C         15.99720         6.29658        -1.59590
C         16.02405         7.81324        -1.52708
C         17.30869         5.57384        -1.49986
C         17.29580         8.50056        -1.18365
C         15.99730        10.70392        -1.16079
C         16.01113        12.07986        -1.04667
C         17.33913        10.01045        -1.21284
C         17.20307        12.75801        -0.54214
C         16.00643        14.97037        -0.33421
C         16.07958        16.43164        -0.74724
C         17.36088        14.27010        -0.59610
C         17.32360        17.16719        -0.43711
C         16.06073        19.36067        -0.97905
C         17.32253        18.57544        -0.62401
C         18.51324         2.07048        -0.53107
C         18.54252         3.47391        -0.83780
C         19.71307         1.39716        -0.24282
C         19.80606         4.15243        -0.78624
C         18.56635         6.37726        -1.28549
C         18.47406         7.83195        -0.95664
C         19.83265         5.61668        -1.02440
C         19.64782         8.54544        -0.40293
C         18.31819        10.57916        -0.18395
C         18.02744        11.93498         0.18725
C         19.52361         9.94405         0.04495
C         19.77601        13.01746         1.07766
C         18.53312        15.01198         0.13602
C         18.51855        16.45397        -0.11193
C         19.70548        14.44879         0.71214
C         19.72994        17.21170        -0.10217
C         18.52610        19.27725        -0.63544
C         19.76235        18.60505        -0.44416
C         20.98138         2.03065        -0.20479
C         21.00377         3.47632        -0.46500
C         22.05694         1.19241         0.22532
C         22.15908         4.29719        -0.11728
C         21.00770         6.43483        -0.56122
C         20.83513         7.86801        -0.22094
C         22.10387         5.67358         0.03325
C         22.09190         8.60010         0.04522
C         20.68588        10.54611         0.89033
C         20.80390        12.08186         1.02463
C         22.05659        10.00147         0.43769
C         22.11597        12.58003         1.31896
C         20.90039        15.26484         0.76824
C         20.95587        16.56854         0.20655
C         22.13782        14.77139         1.24925
C         22.20740        17.23412         0.04196
C         21.00297        19.27008        -0.59465
C         22.23622        18.59634        -0.41148
C         23.44431         1.52447         0.19867
C         23.45060         3.70485         0.12230
C         24.50765         1.12219         0.96816
C         24.45451         4.21050         0.92120
C         23.20736         6.39446         0.67957
C         23.37409         7.83032         0.33755
C         24.38999         5.65316         1.23415
C         24.59765         8.53737         0.77908
C         23.28977        10.65115         0.57643
C         23.31698        12.04941         0.94820
C         24.56043         9.96838         0.62811
C         24.56012        12.85657         0.81907
C         23.37685        15.23439         0.82617
C         23.42787        16.53635         0.25771
C         24.59178        14.37442         0.76638
C         24.69187        17.15151         0.01872
C         23.49514        19.20725        -0.63305
C         24.70983        18.50988        -0.42607
C         25.77423         1.95427         1.14703
C         25.71292         3.48190         0.94795
C         27.02622         1.36805         0.52361
C         26.90188         4.18702         0.96083
C         25.67837         6.39607         1.46352
C         25.71777         7.85141         1.23489
C         26.97204         5.59819         1.42125
C         27.02560         8.59375         1.50432
C         25.77620        10.70239         0.80587
C         25.81475        12.08207         0.92960
C         27.03955         9.88399         0.67161
C         27.07625        12.80233         1.13785
C         25.88376        15.09910         0.77332
C         25.91519        16.44663         0.31853
C         27.09927        14.35523         1.09101
C         27.15301        17.14593         0.15613
C         25.97378        19.15013        -0.59459
C         27.16217        18.48478        -0.31183
C         28.10492         2.11980         0.18767
C         28.00256         3.62863         0.08476
C         29.36503         1.50612        -0.21359
C         29.32062         4.35581         0.17583
C         28.34729         6.28685         1.53301
C         28.30074         7.78771         1.19753
C         29.44806         5.56629         0.76681
C         29.47133         8.46379         0.93113
C         28.31799        10.66729         0.84575
C         28.33381        12.06522         0.90087
C         29.51896         9.91911         0.77201
C         29.56230        12.77771         0.69127
C         28.43001        15.01454         0.85142
C         28.43886        16.48023         0.44094
C         29.59269        14.18104         0.54420
C         29.66950        17.04752        -0.17923
C         28.45815        19.26631        -0.32561
C         29.67998        18.40751        -0.54242
C         30.44484         2.23206        -0.56146
C         30.43604         3.74412        -0.65925
C         31.79134         4.31356        -0.33079
C         30.77941         6.22587         0.84314
C         30.78125         7.74450         0.90722
C         31.94129         5.47246         0.32189
C         31.97943         8.49416         0.48714
C         30.75650        10.61053         0.60710
C         30.78284        12.02100         0.55937
C         31.96995         9.83995         0.39319
C         32.03023        12.77149         0.53947
C         30.77675        14.75215        -0.20581
C         30.82477        16.25858        -0.35251
C         32.04673        14.09546         0.26746
C         31.97783        16.85157        -0.88680
C         30.85004        18.98242        -1.05552
C         31.99827        18.20749        -1.21673
O         23.32680         6.11609         2.12815
O         11.10421        15.48318         0.95441
O         13.66039        12.05905         0.77579
O         18.53320        12.47245         1.36999
O          7.97265         8.24615         0.57227
O         18.13953         5.96369        -2.63308
O         24.54177        13.55829        -0.51922
O         13.22145         4.18928         0.86276
O         20.84650         6.07111        -1.98170
O          6.57688         3.45149        -2.10373
O         22.12497        13.71036         2.14395
O         23.74296         2.59642        -0.67153
O         13.26965        15.78184        -2.18755
O          3.00556         4.75731         2.08092
O          3.64386         3.60912        -1.30740
O         23.05579         8.21409        -1.02538
O          4.90515        10.60017        -1.56393
O         26.27360         5.86056         2.69950
O         31.03929         6.91832         2.09688
O         15.60763        16.79458        -2.08311
O          7.96723         6.05781        -2.34774
O         28.67085        16.09437         1.84153
O          9.08134        14.83266        -1.96974
O         15.94250         7.09289        -2.81445
O         27.05587        13.62011         2.35932
O         14.86089         9.77253         0.64908
H         14.43741        10.61275         1.02055
O         10.63114        10.72739        -2.82067
H         11.14952        11.43492        -3.25902
O         27.05871         8.94288         2.90286
H         27.03289         8.11319         3.42542
O          4.61371        14.56040        -1.29888
H          3.78612        14.11816        -1.58292
O         30.56458        14.29121        -1.60024
H         30.69920        13.31874        -1.60958
O         12.14637         8.45586        -3.08962
H         11.42681         9.08730        -3.34146
O          6.59519        11.71469         1.44321
H          6.63707        12.56856         1.94111
O         10.09910        10.07186         0.73625
H          9.38559         9.56342         1.18907
O          7.12367         9.92575        -2.60217
H          6.16809        10.04442        -2.82159
O         16.08048        19.58543        -2.40216
H         15.97922        18.70065        -2.82469
O         30.16692         4.07773        -2.05317
H         29.19457         3.96566        -2.18743
O         28.74098         6.18560         2.92577
H         27.91880         6.20004         3.46736
O         20.49677         9.99461         2.22737
H         19.66740        10.37393         2.58929
O          5.39366         6.36618        -2.42613
H          6.17517         6.33665        -3.02542
O         28.58449        19.94090         0.94517
H         28.65825        19.25691         1.64330
O         27.05886         9.41858        -0.71372
H         26.88410        10.18311        -1.30152
O         17.94433        10.35061        -2.50920
H         17.53009         9.77895        -3.19118
O          6.42454        14.53729         1.88136
H          7.22198        15.02154         2.18468
O         26.01024         1.84963         2.59136
H         26.78986         2.40062         2.81725
O         27.52810         3.89361        -1.29291
H         26.73969         3.33034        -1.45394
O         17.66035        14.53556        -1.99561
H         18.27328        13.84621        -2.32657
O         10.81664         3.59392         1.40590
H         11.71215         3.63599         1.82010
O         15.76772        14.99328         1.09721
H         15.38945        14.12575         1.36436
O          6.88714        17.42115        -1.60700
H          6.90529        16.54452        -2.04891
O          4.29373         7.76715         1.93234
H          3.77661         7.11829         2.45863
H          0.55421         1.22416         1.33014
H          0.42077         3.68033         1.43679
H          2.72767         0.06225         0.99422
H          0.42387         5.75654         1.27740
H          0.33631         8.15633         0.92804
H          0.38176        10.06262         1.30543
H          0.41214        12.47459         1.54790
H          0.55916        14.31278         2.14182
H          0.66813        16.73785         2.53554
H          1.86260        18.89009         2.38415
H          5.17310         0.16175         0.45855
H          3.85811        20.20399         1.75190
H          7.52328         0.25092        -0.04672
H          6.21714        20.27439         1.17463
H          9.91075         0.27239        -0.46515
H          8.64532        20.31658         0.71931
H         12.33780         0.30358        -0.51067
H         11.11307        20.31933         0.28963
H         14.80738         0.28608        -0.49619
H         13.58591        20.36756        -0.18371
H         17.25130         0.31082        -0.28173
H         16.09504        20.36458        -0.48466
H         19.66112         0.32166        -0.01453
H         18.52436        20.35771        -0.84145
H         21.77220         0.21487         0.64523
H         21.00617        20.32837        -0.89579
H         24.38283         0.30408         1.69214
H         23.53320        20.25515        -0.96632
H         27.12571         0.27069         0.54012
H         26.00350        20.20521        -0.90401
H         29.41709         0.40598        -0.19988
H         28.41145        20.06731        -1.10557
H         31.36936         1.71588        -0.86313
H         32.67366         3.76009        -0.68667
H         32.94622         5.85695         0.54971
H         32.91487         7.93950         0.33064
H         32.89339        10.36871         0.12037
H         32.96270        12.26004         0.81698
H         32.98769        14.66203         0.30663
H         32.87426        16.24176        -1.06523
H         30.85583        20.04677        -1.32991
H         32.91314        18.65770        -1.62584
