         252
 CSIRO Nanostructure Databank - Neutral Graphene Oxide Data Set
C         30.32136        31.56258         0.56592
C         30.50668        32.78642         0.83289
C         30.44965        35.96450         0.89743
C         30.32332        37.19880         1.01635
C         30.23998        40.32505         0.57157
C         30.26865        41.54148         0.31562
C         32.85465        28.85884         0.27326
C         31.72029        29.37312         0.33223
C         33.07507        31.68485         1.05081
C         31.16150        30.50583         0.96020
C         32.89650        33.01433         0.74365
C         31.59946        33.70419         0.84598
C         32.84744        35.89839         1.08795
C         31.55316        35.07808         0.90974
C         32.74917        37.38515         0.72424
C         31.44122        38.12987         0.73136
C         32.67329        40.37022         0.84414
C         31.38346        39.56277         1.18970
C         32.64103        41.71525         0.51446
C         31.37606        42.41738         0.20786
C         32.61618        44.36928        -0.12885
C         31.49519        43.79118        -0.07397
C         35.46884        27.45395        -0.60665
C         35.34523        28.81370        -0.35073
C         34.25892        29.38056         0.52214
C         35.31493        31.68509        -0.20050
C         34.12771        30.89627         0.35526
C         35.34649        33.13852         0.01363
C         34.03180        33.79091         0.15808
C         35.31230        36.02549         0.39569
C         34.02000        35.28522         0.33618
C         35.29617        37.42176         0.64968
C         34.02705        38.12985         0.99368
C         35.25270        40.35948         0.81651
C         33.96949        39.65397         1.06205
C         35.21947        41.79180         0.57020
C         33.90994        42.55039         0.72254
C         35.10633        44.59335        -0.32012
C         33.94238        43.93126        -0.01435
C         35.35194        45.97860        -0.52357
C         37.85840        27.38101        -1.03481
C         36.57157        26.91540        -0.99309
C         37.81336        28.91185        -1.22405
C         36.54339        29.58804        -0.66958
C         37.79817        31.76796        -0.59136
C         36.56563        30.95302        -0.46959
C         37.79427        33.18365        -0.15549
C         36.54194        33.86864         0.02767
C         37.77164        36.03760         0.27393
C         36.53325        35.32118         0.22398
C         37.73413        37.45122         0.42677
C         36.50295        38.16260         0.60812
C         37.70685        40.37022         0.78432
C         36.44092        39.62333         0.74141
C         37.67495        41.89168         0.59821
C         36.37569        42.51311         0.35019
C         37.62565        44.71464         0.17793
C         36.44364        43.86593        -0.34316
C         37.62603        46.22414         0.11011
C         36.38080        46.69278        -0.55052
C         40.38013        24.69790        -1.43528
C         39.30793        25.33665        -1.14743
C         40.37772        27.46728        -1.02542
C         39.10017        26.70959        -1.04632
C         40.36123        28.82849        -0.88244
C         39.05813        29.52255        -0.51947
C         40.34875        31.73472        -0.32279
C         39.10358        31.03210        -0.70707
C         40.26612        33.11638        -0.01834
C         39.03393        33.84378         0.01313
C         40.26325        35.94718         0.35230
C         39.04001        35.29530         0.21029
C         40.30964        37.42455         0.45376
C         39.01357        38.20679         0.48300
C         39.93501        40.46672        -0.17566
C         38.92567        39.68602         0.29957
C         40.11914        41.88564         0.01940
C         38.90009        42.63616         0.19583
C         40.18528        44.68825        -0.22529
C         38.92007        43.99620         0.12928
C         40.19037        46.19530        -0.23506
C         38.92916        47.00851         0.19120
C         40.08809        48.75837        -1.10733
C         39.04981        48.22820        -0.70780
C         42.95617        24.75671        -1.79402
C         41.65124        25.20299        -1.52068
C         42.91873        27.48937        -1.34419
C         41.68805        26.68585        -0.92173
C         42.89222        28.99029        -1.26392
C         41.54707        29.74218        -1.19447
C         42.81260        31.66449        -0.00387
C         41.57084        31.03795        -0.40681
C         42.75444        32.99151         0.45959
C         41.58797        33.83436         0.00952
C         42.65003        35.83226         1.04464
C         41.51040        35.22839         0.56147
C         42.80074        37.30291         0.89291
C         41.68723        38.00298         0.22312
C         42.72946        40.27216         0.60820
C         41.84817        39.44918         0.01886
C         42.65489        41.78754         0.52116
C         41.37719        42.47838         0.02070
C         42.68919        44.57496        -0.21253
C         41.47193        43.92691        -0.10457
C         42.77184        46.05462        -0.36840
C         41.52636        46.90689        -0.26256
C         42.69744        48.62397        -1.59988
C         41.47797        48.37361        -0.85350
C         44.02779        25.39757        -1.65587
C         45.39605        27.41663        -0.98448
C         44.24387        26.75235        -1.28923
C         45.33480        28.83850        -0.48713
C         44.20677        29.75903        -0.99994
C         45.30255        31.66687         0.23731
C         44.08470        30.99856        -0.11265
C         45.27922        33.04718         0.76796
C         43.91418        33.54883         1.24933
C         45.15386        35.83450         1.65466
C         43.86766        35.07226         1.42532
C         45.21575        37.35690         1.52356
C         43.94430        38.13170         1.40990
C         45.20714        40.19817         0.46285
C         43.97845        39.68757         1.24116
C         45.15925        41.48397        -0.04499
C         43.86417        42.28336        -0.28977
C         45.11347        44.30586        -1.02320
C         44.02893        43.82425        -0.06030
C         45.06757        45.68637        -1.62925
C         44.01407        46.61900        -1.13916
C         43.70361        47.91693        -1.72590
C         47.77198        27.52671        -0.56819
C         46.72994        26.92564        -0.88262
C         47.95118        28.90073        -0.22250
C         46.60324        29.55394        -0.07203
C         47.81194        31.75837         0.23467
C         46.54315        31.01777         0.08177
C         47.74010        33.01738         1.02826
C         46.43146        33.72087         1.07728
C         47.74938        35.87525         1.51077
C         46.47675        35.05912         1.81448
C         47.69897        37.41247         1.59536
C         46.45832        37.93797         0.87005
C         47.66846        40.01375         0.21541
C         46.45643        39.44260         0.56932
C         47.68676        41.32284        -0.48079
C         46.38291        42.07954        -0.62901
C         47.75984        44.20766        -1.23552
C         46.43785        43.57889        -0.82069
C         47.48683        45.45456        -1.96938
C         46.43928        46.10913        -1.93416
C         50.46504        29.12267        -0.17093
C         49.12417        29.59924        -0.14511
C         50.40942        31.74296         0.60574
C         49.15375        31.08824         0.08673
C         50.34521        33.08556         1.06835
C         49.01804        33.72961         1.36530
C         50.26099        35.92586         1.27598
C         48.94030        35.21893         1.48211
C         50.20251        37.44143         1.49265
C         48.95237        38.08900         1.07987
C         50.21603        39.96855         0.11357
C         48.94939        39.34574         0.50109
C         50.12184        41.08575        -0.92949
C         49.01977        42.07642        -0.50004
C         50.11677        43.53969        -2.02137
C         48.93269        43.34676        -1.42053
C         51.55160        29.68441         0.06198
C         52.77562        31.81315         0.91459
C         51.67010        31.04376         0.52166
C         52.65360        33.00315         1.32933
C         51.51304        33.79275         1.46813
C         52.61439        36.08267         1.73444
C         51.42216        35.18991         2.00908
C         52.60942        37.25709         1.36613
C         51.50623        38.22946         1.35495
C         52.58242        40.02080        -0.11792
C         51.43496        39.43343         0.52738
C         52.57769        41.05563        -0.82216
C         51.50161        41.82956        -1.30691
C         51.30962        43.00389        -1.97182
O         37.82965        41.27388         1.92273
O         40.02582        45.46258        -1.48080
O         34.02440        38.81919         2.27820
O         42.88489        28.27830        -2.56688
O         48.31804        32.93560         2.38043
O         44.28191        35.47089         2.77103
O         44.65891        44.51255        -2.39528
O         44.55595        37.87126         2.71187
O         42.69840        37.38752        -0.63721
O         48.57776        31.86633        -1.02927
O         46.96039        41.32475        -1.74733
O         40.94627        39.89824        -0.94507
O         43.93398        46.65148         0.29428
O         32.15691        30.99884         1.89364
O         37.35568        45.52049         1.36226
O         32.09712        37.80602        -0.51368
O         38.48804        31.56723        -1.91600
O         41.68031        48.11427         0.53701
O         47.29871        44.25451         0.15773
O         45.67630        28.91414         0.91990
O         39.77177        37.90877         1.73871
O         50.81445        38.14137         2.62761
O         34.18420        31.26702        -1.05056
O         33.66837        34.70919        -0.94393
O         44.54864        44.05661         1.25071
H         43.89334        43.68593         1.89332
O         47.56839        37.76654         2.99175
H         48.45128        37.69474         3.41562
O         38.88292        29.34296         0.91210
H         39.06078        28.40580         1.13787
O         41.91441        34.08847        -1.42553
H         41.72571        33.26058        -1.92150
O         50.55588        35.77600        -0.14030
H         49.79224        36.10361        -0.66076
O         49.31053        42.52962         0.81750
H         48.66696        43.24239         1.05014
O         44.66227        30.25240        -2.28667
H         44.28705        29.66600        -2.98240
O         36.78378        43.58183        -1.72500
H         35.99040        43.24192        -2.18839
O         51.14095        35.18046         3.39657
H         51.83807        34.67911         3.86708
O         39.14505        47.41513         1.52334
H         38.30860        47.74943         1.90689
O         43.50663        42.04189        -1.66152
H         44.16629        42.44927        -2.26339
O         34.57017        29.11148         1.89129
H         34.67738        28.14404         2.00545
O         46.58368        34.72695         3.21854
H         46.50787        35.56118         3.72970
O         44.13945        40.25628         2.56155
H         44.56414        39.56625         3.13256
O         43.76982        32.95940         2.57149
H         44.28089        33.53379         3.19127
O         37.87881        29.11750        -2.63594
H         37.95814        30.09248        -2.79582
O         46.49212        37.29312        -0.43786
H         45.88285        37.76228        -1.04776
O         49.67780        40.48745        -2.15197
H         50.35468        39.85082        -2.46175
O         31.25241        39.51931         2.60242
H         31.24320        40.43455         2.95238
O         33.84115        42.89948         2.13043
H         34.68267        43.33002         2.39282
O         41.25842        30.20095        -2.54962
H         41.44800        29.45076        -3.15935
O         33.20283        35.84121         2.48318
H         32.60823        36.42764         2.99737
O         42.70413        42.31200         1.87599
H         43.11636        41.63172         2.46800
O         41.88725        26.48985         0.49795
H         41.19649        25.87805         0.83041
