         661
 CSIRO Nanostructure Databank - Neutral Graphene Oxide Data Set
C          6.12993        31.89199        -1.56864
C          6.12075        33.24719        -1.44463
C          8.49990        27.48576        -1.07854
C          8.41557        28.92706        -0.66406
C          7.27496        29.72536        -1.23819
C          8.49399        31.81726        -0.80924
C          7.29388        31.09791        -1.21557
C          8.48369        33.22660        -0.66491
C          7.27971        33.98692        -0.98920
C          8.47919        36.12340        -0.61186
C          7.29434        35.36741        -0.96319
C          8.57177        37.46167        -0.84598
C         10.99236        23.18426        -1.08287
C         10.92120        24.58874        -0.98709
C          9.74174        25.33774        -1.09967
C         10.91965        27.51495        -0.75577
C          9.69606        26.77487        -0.97000
C         10.92781        28.92585        -0.74196
C          9.72863        29.66008        -0.76250
C         10.88385        31.80813        -0.29560
C          9.70911        31.09263        -0.63189
C         10.84721        33.19825        -0.04855
C          9.64732        33.91388        -0.25084
C         10.90495        36.08543         0.14384
C          9.56926        35.37676         0.12829
C         10.95910        37.47499        -0.00847
C          9.87197        38.21557        -0.75579
C         10.89306        40.36521         0.06284
C          9.77498        39.66594        -0.35855
C         10.90035        41.79918         0.15884
C         13.31787        18.88839        -0.47628
C         13.38530        20.29910        -0.64040
C         12.19994        21.04712        -0.84513
C         13.48951        23.12963        -0.91182
C         12.21584        22.45330        -0.92873
C         13.47330        24.59238        -1.03430
C         12.19173        25.29774        -0.69989
C         13.48400        27.54836        -0.84662
C         12.18947        26.78466        -0.58057
C         13.43459        28.91548        -0.23650
C         12.22121        29.65028        -0.62691
C         13.32085        31.69289         0.41415
C         12.17859        31.11135        -0.29551
C         13.22637        33.11076         0.64620
C         12.06588        33.87898         0.34693
C         13.32547        35.96950         0.64596
C         12.09155        35.30779         0.43896
C         13.24619        37.45173         1.01444
C         12.10749        38.21948         0.38617
C         13.23127        40.40838         0.89157
C         12.11232        39.64121         0.43394
C         13.27617        41.82626         0.81675
C         12.05363        42.53132         0.45871
C         13.25685        44.69826         0.52313
C         12.07635        43.95560         0.38412
C         13.26420        46.11016         0.34854
C         15.74468        14.51244        -0.33388
C         15.63515        15.87378         0.32093
C         14.44881        16.71071        -0.10769
C         15.77340        18.80224        -0.26446
C         14.47136        18.08599        -0.25136
C         15.82273        20.28562        -0.15168
C         14.63928        21.00953        -0.55411
C         16.02163        23.10076        -0.68225
C         14.69629        22.40967        -0.76394
C         16.03370        24.60765        -0.56091
C         14.76496        25.37454        -0.80333
C         15.63217        27.33087         0.45530
C         14.66603        26.76993        -0.36276
C         15.71257        28.76216         0.72063
C         14.53292        29.53085         0.35397
C         15.69714        31.58311         1.14877
C         14.49196        30.95465         0.65590
C         15.60880        33.02560         1.45467
C         14.41452        33.76920         0.99952
C         15.82554        35.66221         0.72349
C         14.47897        35.16127         0.85345
C         15.73792        37.79577         0.68114
C         14.50451        38.27729         0.97272
C         15.76692        40.44422         1.39469
C         14.44184        39.69819         1.35208
C         15.75872        41.89302         1.12107
C         14.48931        42.56590         0.98112
C         15.70744        44.70936         0.85369
C         14.51231        43.99593         0.78328
C         15.71960        46.17236         0.68721
C         14.44666        46.86798         0.36202
C         15.67951        48.97731        -0.10313
C         14.47270        48.26129         0.14421
C         15.72736        50.36168        -0.20389
C         18.25116        10.46356        -1.47101
C         18.20648        11.70288        -0.67656
C         17.05413        12.46598        -0.76802
C         18.11296        14.41983         0.38142
C         16.90395        13.79373        -0.22666
C         18.15836        15.90311         0.37924
C         16.96638        16.58487         0.23281
C         18.22194        18.72873         0.44542
C         17.01117        18.02886         0.02952
C         18.13991        20.16590         0.74637
C         16.97642        20.92578         0.23216
C         18.24311        23.11566         0.67311
C         17.27179        22.33535        -0.21752
C         18.16195        24.47567         0.86024
C         16.98745        25.21052         0.40467
C         18.35246        27.47573         1.62509
C         16.60477        26.39689         0.98616
C         18.19159        28.81162         1.24102
C         16.91504        29.44891         1.09167
C         18.19271        31.58957         1.55516
C         16.91420        30.90199         1.22907
C         18.17709        33.05283         1.89597
C         16.86920        33.78215         1.78398
C         18.17449        36.05345         1.61127
C         16.95729        35.17599         1.29819
C         18.18044        37.44819         0.95907
C         16.99000        38.33607         1.09119
C         18.29523        40.37117         1.07424
C         17.04104        39.70176         1.25008
C         18.20136        41.78214         0.58086
C         16.97000        42.54720         1.00746
C         18.31781        44.70523         0.65411
C         16.99780        44.01567         1.01347
C         18.29159        46.11436         0.17948
C         17.01213        46.86891         0.33032
C         18.19786        48.88498        -0.42762
C         16.88007        48.14016        -0.50249
C         18.21918        50.36747        -0.46919
C         16.92995        51.10021        -0.52720
C         18.16212        53.14207        -1.36513
C         16.93314        52.42473        -0.85944
C         18.30073        54.55295        -0.82611
C         21.01256         6.70266        -2.85623
C         20.78344         7.71407        -1.97395
C         19.30460         8.16471        -1.95864
C         20.78504        10.15140        -0.11983
C         19.00338         9.38823        -1.15016
C         20.64182        11.56966        -0.00651
C         19.42680        12.24432        -0.08758
C         20.67466        14.44367         0.39880
C         19.40822        13.66864         0.35817
C         20.66339        15.86553         0.50992
C         19.41771        16.59436         0.46484
C         20.66480        18.79678         0.61000
C         19.40277        18.02138         0.57323
C         20.68591        20.18418         1.10846
C         19.37576        20.88732         1.20058
C         20.58469        22.99453         1.46055
C         19.42410        22.36889         1.12296
C         20.62143        24.46412         1.26608
C         19.32975        25.18224         1.61215
C         20.72232        27.36005         1.16616
C         19.47078        26.68078         1.39656
C         20.72554        28.80026         1.04018
C         19.42773        29.56209         0.81308
C         20.74041        31.57572         1.81582
C         19.40241        30.96067         1.40925
C         20.75507        33.11172         1.74475
C         19.45186        33.85790         1.77497
C         20.66621        35.98866         1.17226
C         19.48348        35.31049         1.42281
C         20.73512        37.43075         1.08227
C         19.48064        38.17503         0.90095
C         20.73662        40.32965         0.78210
C         19.47306        39.65251         0.93228
C         20.74907        41.73360         0.54427
C         19.51463        42.51542         0.56722
C         20.70018        44.51437        -0.24117
C         19.50022        43.86510         0.32725
C         20.70223        45.98961        -0.45737
C         19.42716        46.72968        -0.25898
C         20.71323        48.87946        -0.69126
C         19.41892        48.10863        -0.87760
C         20.71088        50.25771        -0.84597
C         19.47089        51.03644        -0.89319
C         20.71249        53.12674        -1.48480
C         19.44756        52.35902        -1.20962
C         20.78614        54.36211        -0.56398
C         19.50243        55.16539        -0.60335
C         20.79582        57.25553        -0.27999
C         19.58848        56.57576        -0.32932
C         20.82595        58.68227        -0.15077
C         23.73484         4.72632        -4.50444
C         22.47037         5.20221        -4.17199
C         23.42619         6.51021        -2.34111
C         22.30745         6.11024        -3.10357
C         23.23676         7.40769        -1.17536
C         21.89329         8.11182        -1.03212
C         23.21779        10.19310        -0.25523
C         21.95502         9.48906        -0.45017
C         23.16804        11.53421         0.10559
C         21.93023        12.34440        -0.18290
C         23.10484        14.45777         0.52436
C         21.89961        13.75787         0.34640
C         23.12525        15.86492         0.67188
C         21.90419        16.56133         0.60586
C         23.18037        18.74165         0.99075
C         21.95484        18.03442         0.58998
C         23.15467        20.13342         1.25076
C         21.87162        20.83213         1.35752
C         23.10895        23.02051         1.90179
C         21.78603        22.23012         1.97479
C         23.16612        24.46416         1.61851
C         21.92230        25.18631         1.26097
C         23.24930        27.32069         0.98699
C         21.92318        26.65758         1.20747
C         23.18814        28.82181         1.15582
C         21.95168        29.49261         1.03951
C         23.21713        31.68792         1.11590
C         21.88268        31.00123         0.92098
C         23.23665        33.09085         1.08824
C         21.98999        33.84219         1.35540
C         23.21844        35.99295         1.00480
C         21.91934        35.23595         0.77396
C         23.18882        37.39802         1.11213
C         21.95490        38.13152         1.05343
C         23.16972        40.31104         0.84519
C         21.95364        39.59331         0.89954
C         23.20338        41.70098         0.55700
C         21.98662        42.38893         0.36466
C         23.26731        44.58479        -0.02582
C         22.00232        43.78492        -0.12120
C         23.19966        46.07325        -0.07081
C         21.97990        46.74553        -0.37655
C         23.19128        48.87370        -0.47923
C         21.95398        48.15216        -0.50933
C         23.21552        50.25652        -0.82558
C         21.96532        50.97515        -1.00511
C         23.21080        53.06859        -1.52275
C         21.96286        52.32423        -1.28465
C         23.23433        54.52706        -1.22989
C         22.04124        55.17274        -0.84218
C         23.27764        57.25333        -0.55150
C         22.05664        56.54948        -0.53589
C         23.32490        58.66367        -0.02272
C         22.01133        59.39975        -0.15603
C         23.23126        61.51931        -0.29447
C         22.03577        60.82091        -0.15414
C         24.85634         5.18117        -3.80574
C         25.88526         6.59573        -2.04779
C         24.71366         6.07922        -2.73494
C         25.79653         7.49741        -1.04922
C         24.48579         7.97022        -0.45286
C         25.69002        10.16339        -0.08016
C         24.48671         9.49187        -0.30738
C         25.70434        11.57097         0.27404
C         24.39648        12.22678         0.50892
C         25.65225        14.43720         0.38660
C         24.36612        13.70952         0.68845
C         25.61509        15.90584         0.73213
C         24.38988        16.58692         0.80197
C         25.63390        18.71985         1.01708
C         24.39749        18.01050         0.98221
C         25.61670        20.14941         1.11385
C         24.39696        20.82374         1.36735
C         25.61511        23.06573         1.37739
C         24.42965        22.26962         1.70193
C         25.62911        24.45191         1.59762
C         24.36414        25.15371         1.71105
C         25.60525        27.39709         2.00370
C         24.26465        26.66530         1.93539
C         25.61001        28.85248         1.68305
C         24.43458        29.52002         1.32862
C         25.65581        31.70628         1.08826
C         24.43167        30.97637         1.18302
C         25.64530        33.10381         0.84603
C         24.44146        33.82730         0.94120
C         25.71589        35.98123         0.90931
C         24.43778        35.28122         0.95857
C         25.75304        37.42598         1.08842
C         24.45844        38.12070         1.30444
C         25.72512        40.26288         0.71079
C         24.43253        39.61852         1.16867
C         25.65739        41.76506         0.81183
C         24.47224        42.44063         0.60515
C         25.62917        44.62992         0.64394
C         24.48030        43.89795         0.48777
C         25.59937        46.10948         0.60853
C         24.37729        46.80471         0.13352
C         25.63915        48.93294        -0.16960
C         24.40714        48.20596        -0.14119
C         25.66022        50.24624        -0.64985
C         24.45251        50.90751        -0.98613
C         25.77089        53.06716        -1.31280
C         24.51085        52.30338        -1.45845
C         25.74193        54.53498        -1.63674
C         24.45916        55.22817        -1.24509
C         25.73771        57.34527        -0.91537
C         24.47737        56.59842        -0.89916
C         25.70510        58.75646        -0.79385
C         24.52165        59.44873        -0.51025
C         24.45239        60.85272        -0.50416
C         27.02343         7.99494        -0.32954
C         28.14329        10.19375         0.01340
C         26.97861         9.49520        -0.14468
C         28.16360        11.60994         0.31828
C         26.87944        12.26532         0.47835
C         28.12150        14.47656         0.73281
C         26.85484        13.69477         0.99082
C         28.09813        15.84100         0.74138
C         26.84914        16.59450         0.79848
C         28.10098        18.74672         0.77581
C         26.86596        18.01221         0.90180
C         28.03819        20.18314         0.67654
C         26.84189        20.87649         0.87494
C         28.04734        23.17498         0.64323
C         26.76361        22.36184         0.79493
C         28.06825        24.52358         1.24993
C         26.90207        25.17749         1.61068
C         28.23562        27.44262         2.11480
C         26.91366        26.61655         2.06022
C         28.11907        28.79278         1.37462
C         26.90204        29.63400         1.87650
C         28.12052        31.71261         1.11804
C         26.90332        31.01978         1.24482
C         28.15998        33.11497         0.82915
C         26.89358        33.80887         0.39173
C         28.16829        36.03528         0.35232
C         26.89621        35.29006         0.68979
C         28.20390        37.46653         0.84591
C         26.95921        38.13293         1.09180
C         28.20550        40.35767         0.97582
C         26.95310        39.62917         1.41477
C         28.17851        41.70219         0.80611
C         26.92510        42.47300         1.02609
C         28.16277        44.73076         0.66155
C         26.91546        43.98881         0.97524
C         28.17788        46.09479         0.54108
C         26.90314        46.85726         0.68450
C         28.21565        48.95330         0.01479
C         26.90219        48.30983         0.31059
C         28.23899        50.23511        -0.75038
C         26.94254        50.92909        -0.97793
C         28.22905        53.11069        -1.05216
C         26.95139        52.40456        -1.12559
C         28.18652        54.53820        -1.07669
C         26.99443        55.24799        -1.20689
C         26.94937        56.65341        -1.04662
C         29.34610        12.29519         0.47898
C         30.57936        14.48809         0.35600
C         29.41854        13.72913         0.93894
C         30.58243        15.86041         0.36122
C         29.39827        16.58569         0.97568
C         30.54694        18.73564         0.39206
C         29.32673        18.05596         0.63921
C         30.58984        20.15551         0.43698
C         29.30232        20.89729         0.38229
C         30.61127        23.06434         0.70779
C         29.32331        22.40199         0.41459
C         30.62486        24.37802         1.04499
C         29.40362        25.14350         1.44611
C         30.70911        27.39453         1.36513
C         29.47059        26.61816         1.72439
C         30.68980        28.89233         1.31310
C         29.40125        29.61178         1.44020
C         30.55623        31.69521         0.66792
C         29.37127        30.96365         1.24773
C         30.64558        33.13769         1.17736
C         29.36076        33.87514         0.87091
C         30.67804        35.99774         0.76180
C         29.41910        35.26332         0.70383
C         30.67428        37.44676         0.72292
C         29.43324        38.13957         0.84107
C         30.58461        40.25315         0.17011
C         29.52230        39.63521         1.09289
C         30.68161        41.74839         0.35628
C         29.38291        42.45779         0.38006
C         30.66882        44.67596         0.35014
C         29.37994        43.95351         0.33539
C         30.67433        46.03857         0.30480
C         29.43110        46.79979         0.26929
C         30.71885        48.87832        -0.19515
C         29.46564        48.15948         0.02999
C         30.68005        50.30689        -0.46308
C         29.50737        51.00644        -0.68862
C         29.43347        52.42162        -0.87075
C         31.73768        16.61460        -0.00313
C         32.97667        18.74830        -0.06402
C         31.76669        18.01141         0.12002
C         33.02570        20.11850         0.14301
C         31.81644        20.82574         0.41200
C         33.13260        22.96604         0.38904
C         31.89958        22.25138         0.89343
C         33.02039        24.46398         0.22456
C         32.01006        24.89892         1.31677
C         33.02361        27.40175         0.25293
C         31.61458        26.88803         0.27851
C         33.03779        28.82827         0.33897
C         31.85408        29.56188         0.66926
C         33.08586        31.64205         0.43430
C         31.87243        30.95264         0.68463
C         33.14703        33.10101         0.80543
C         31.82925        33.82817         0.47245
C         33.18680        35.99671         0.88842
C         31.88698        35.30364         0.78672
C         33.21833        37.50041         0.76697
C         31.90976        38.18248         0.57787
C         33.12447        40.28248         0.08303
C         31.90778        39.55225         0.34466
C         33.08429        41.70241        -0.05121
C         31.86658        42.42561         0.23705
C         33.09546        44.60157        -0.22928
C         31.96887        43.91401         0.52533
C         33.08130        45.97809        -0.31006
C         31.99832        46.77398         0.37403
C         31.91251        48.20486        -0.08380
C         34.37131        20.82829         0.07849
C         35.39698        23.11613        -0.51442
C         34.26875        22.33623        -0.02209
C         35.44057        24.49409        -0.43739
C         34.34705        25.20484         0.33718
C         35.41386        27.39904        -0.26539
C         34.20356        26.68791         0.01992
C         35.42950        28.79899        -0.24531
C         34.24651        29.52103         0.06130
C         35.41540        31.64513        -0.43028
C         34.25329        30.94969         0.10371
C         35.33114        33.11152        -0.60429
C         34.24755        33.85125         0.09731
C         35.58803        35.95283        -0.08477
C         34.49852        35.23540         0.67799
C         35.43502        37.36409        -0.58556
C         34.56057        38.19330         0.41549
C         35.46607        40.28135        -0.65324
C         34.35037        39.60069        -0.08373
C         35.39829        41.67479        -0.86059
C         34.24399        42.41423        -0.50662
C         34.19036        43.82226        -0.68377
C         36.56840        25.28485        -0.84668
C         37.75525        27.43496        -1.14105
C         36.60283        26.66760        -0.71237
C         37.82843        28.80483        -1.04389
C         36.73911        29.55233        -0.31444
C         37.54093        31.59254        -1.74163
C         36.56109        30.98561        -0.76051
C         37.59640        33.15153        -1.71745
C         36.60182        33.81772        -0.83640
C         38.27528        36.23269        -1.61980
C         36.70181        35.13703        -0.39957
C         37.79827        37.57504        -1.77689
C         36.69286        38.13279        -1.07755
C         36.60045        39.53173        -1.09659
C         38.96717        29.57221        -1.50180
C         40.02464        31.68594        -2.24468
C         38.90322        30.92853        -1.72332
C         39.96959        33.00290        -2.58024
C         38.78396        33.86462        -2.33377
C         38.93411        35.36461        -2.45260
O         33.26578        36.86029         2.08577
O         37.56128        33.58535        -3.14316
O         16.60415        18.37919        -1.41019
O         27.58963        49.12620         1.33764
O         17.23368        26.80966         2.16948
O         30.16189        31.73419        -0.70903
O         18.84619        33.53811         3.10495
O         31.05837        26.41080        -0.71184
O         32.34079        25.36031         2.39411
O         15.89486        36.71463        -0.17691
O         12.50154        30.64218        -1.67786
O         18.42784        20.39108         2.20517
O         31.23221        28.14184         2.48495
O         15.01644        40.11353         2.63081
O         23.93647        22.62533         3.04781
O         18.80122        37.60499        -0.34363
O         21.63071        33.71143         2.77450
O         26.95146        43.27956         2.26122
O         27.63751        50.20191        -2.08561
O         22.25106         6.96366        -0.17784
O         29.29499        21.70247        -0.86841
O         18.39604        49.61437         0.80346
O         24.32881        12.86027         1.88632
O         21.39687        18.61681        -0.65904
O         27.14285        22.99548        -0.48006
O         29.66513        25.65068         2.81241
O         20.52675        45.06173        -1.60785
O         16.45796        23.96530        -1.79619
O         21.25611        24.72539        -0.02963
O         15.95150        33.42119         2.85763
O         12.23314        25.94525         0.62937
O         24.43605        39.01687         2.50430
O         14.21954        25.15739        -2.14404
O         29.15980        43.16324        -0.91839
O         25.73581        54.64289        -3.17924
O         19.64493         9.36379         0.10167
O         23.87068        52.59985        -2.75788
O         37.96338        35.71173        -0.35275
O         34.18815        33.71865        -1.33936
O         16.51647        46.92996         1.68581
O         26.13153        46.62592         1.89994
O         17.90669        44.56341         2.05478
O         18.60858        13.80280         1.61413
O         22.84895        43.96325        -1.30266
O         26.19947        26.95331         3.28717
O         29.60655        16.53710         2.42333
H         29.69550        15.57716         2.66176
O         30.11679        40.00998        -1.18621
H         30.68511        40.51435        -1.80494
O         20.92880        53.83866         0.78390
H         20.90901        54.59431         1.40794
O         18.08734        22.08196        -1.40881
H         17.92010        22.83551        -2.02538
O         28.48136        27.78442         3.49204
H         28.82908        26.98004         3.94107
O         25.88279        39.92726        -0.70105
H         25.30790        40.51955        -1.23021
O         19.28855        47.88771        -2.32450
H         19.88803        47.14853        -2.57219
O         35.10905        35.03434         1.98003
H         34.92125        35.84698         2.50529
O         21.97268        12.54142        -1.66113
H         22.78867        13.04750        -1.86789
O         18.05155        36.33020         3.03373
H         18.15408        35.46896         3.50603
O         24.48117         7.46643         0.90964
H         23.54927         7.19793         1.10247
O         23.65703        26.82083         3.24030
H         24.35791        26.65139         3.91042
O         35.35420        38.26980         1.61849
H         34.81052        38.68197         2.32250
O         34.78219        25.14131         1.72112
H         35.61655        25.64926         1.79969
O         25.78206        14.35807        -1.06625
H         26.55276        14.90492        -1.32987
O         32.57024        24.64137        -1.12904
H         31.65114        24.31066        -1.21928
O         32.30236        44.00294         1.94245
H         32.46347        44.96128         2.13958
O         26.88739        33.68469        -1.07928
H         27.56635        34.32022        -1.41894
O         19.11957        24.95911         3.02580
H         18.30089        25.44321         3.27776
O         31.62168        33.80861        -0.94470
H         31.05977        32.99706        -1.17131
O         33.41454        33.15231         2.21883
H         32.63219        32.77787         2.69116
O         23.53564        58.51882         1.43176
H         23.58195        59.42474         1.80540
O         16.63272        47.72961        -1.87139
H         17.49977        47.68670        -2.34790
O         18.83024         8.32132        -3.29789
H         19.35018         9.02552        -3.73627
O         29.60636        13.70479         2.40671
H         28.72309        13.47197         2.78699
O         26.76861        13.64216         2.44184
H         25.90413        13.20499         2.65992
O         17.94154        41.58801        -0.87889
H         18.67820        41.05059        -1.24432
O         34.58375        37.24411        -1.76546
H         34.98025        36.59241        -2.38273
O         21.50345        22.01136         3.38182
H         22.37159        21.94380         3.84409
O         32.37402        46.81918         1.81077
H         31.68728        47.34535         2.27477
O         26.91055        39.80147         2.84531
H         26.03516        39.45908         3.16035
O         13.53060        27.73588        -2.28636
H         14.27987        28.32995        -2.49967
O         37.21193        29.62581         1.08255
H         36.50968        30.06518         1.60882
O         17.95276        53.31245        -2.80810
H         18.81361        53.63181        -3.17518
O         27.02092        29.92433         3.28929
H         27.34105        29.10471         3.74526
O         15.41223        15.61905         1.75618
H         16.11863        15.00976         2.06359
O         20.70438        53.62747        -2.85628
H         21.28320        53.05541        -3.40372
O         27.90667        28.45966        -0.01512
H         28.11785        29.24353        -0.56753
O          9.14311        35.37254         1.53973
H          8.28117        34.90611         1.58315
O         19.30554        29.73119        -0.64099
H         20.04094        30.33835        -0.91217
O         21.48901        31.33290        -0.45356
H         22.26593        31.19668        -1.03700
O         21.80510        35.03255        -0.66927
H         21.65877        35.90697        -1.08841
O         28.22940         7.59405        -0.97716
H         28.28413         8.04944        -1.84175
O         29.95224        39.82585         2.46361
H         29.15699        39.74626         3.03731
O         35.15542        20.29678        -0.99481
H         34.71806        20.52932        -1.83925
O         20.98952        31.17574         3.17141
H         21.29738        31.97034         3.66481
O         28.19060        36.12575        -1.13346
H         27.57022        36.84040        -1.39478
O         30.81888        33.11342         2.61320
H         30.74625        34.03004         2.95410
O         36.98014        31.18067        -3.02359
H         37.11126        31.93648        -3.64749
O          8.12460        28.86345         0.80765
H          8.80734        28.28282         1.20915
O         26.87511        53.92998        -3.67461
H         26.51601        53.02737        -3.86098
O         12.92581        37.38317         2.45313
H         12.92871        38.29875         2.80758
O         32.04216        22.12442         2.34828
H         32.29010        23.00379         2.71254
O         10.35400        38.26006        -2.16010
H         11.17133        38.80305        -2.17072
O         23.69029        27.03455        -0.37431
H         22.90448        27.00810        -0.95995
H          5.22904        31.36483        -1.91605
H          5.21615        33.81666        -1.70546
H          7.55975        26.93912        -1.24909
H          6.35565        29.19413        -1.52908
H          6.41168        35.92141        -1.31971
H          7.72627        37.98443        -1.32240
H         10.06552        22.61197        -1.23841
H          8.79268        24.80906        -1.27619
H          8.86179        40.21984        -0.62647
H          9.97938        42.34105        -0.10549
H         12.33000        18.40447        -0.50932
H         11.23751        20.51727        -0.90021
H         11.13950        44.48430         0.15107
H         12.31001        46.61582         0.13495
H         14.85602        14.05954        -0.79981
H         13.47666        16.19380        -0.14034
H         13.51818        48.81107         0.12910
H         14.80076        50.93737        -0.04992
H         17.66193        10.44010        -2.40009
H         16.19151        12.04344        -1.30565
H         15.98142        52.97640        -0.90887
H         17.38249        55.16241        -0.80370
H         20.17907         6.36793        -3.49343
H         18.72214         7.31086        -1.51364
H         18.65020        57.14415        -0.23346
H         19.86670        59.22243        -0.11575
H         23.85565         4.01525        -5.33323
H         21.58845         4.88530        -4.74656
H         23.21396        62.61808        -0.31157
H         21.08414        61.37043        -0.10415
H         25.86106         4.83586        -4.08780
H         26.87729         6.25107        -2.37892
H         26.63354        59.32359        -0.96436
H         25.35690        61.43750        -0.72738
H         27.02877         7.52426         0.69156
H         29.10199         9.65645        -0.04689
H         29.11918        55.09269        -0.88932
H         27.89485        57.20646        -0.93555
H         30.29638        11.74942         0.37102
H         31.46300        13.93263         0.00477
H         31.63897        50.84732        -0.46872
H         30.36767        53.00185        -0.82246
H         32.64566        16.07873        -0.31938
H         33.90166        18.20491        -0.30670
H         33.91306        46.51384        -0.79234
H         32.85815        48.75378        -0.21073
H         34.93072        20.58637         1.02450
H         36.24329        22.56317        -0.95052
H         36.26354        42.19907        -1.29193
H         35.05595        44.33305        -1.13261
H         37.43883        24.76950        -1.28305
H         38.58502        26.88320        -1.61147
H         38.35555        38.25315        -2.44431
H         37.44062        40.09912        -1.52702
H         39.90724        29.03440        -1.71017
H         40.97242        31.14318        -2.39019
H         40.87521        33.49276        -2.96866
H         39.23285        35.70504        -3.45680
