         261
 CSIRO Nanostructure Databank - Neutral Graphene Oxide Data Set
C        -10.93596         0.64415        -1.41627
C         -9.56206         1.27020        -1.26947
C         -8.82521         0.69269        -0.06798
C         -7.70236         1.47264         0.54687
C         -6.45753         0.70893         1.06763
C         -5.14586         1.44862         0.73531
C         -3.85540         0.67835         0.83366
C         -2.51245         1.39301         0.86680
C         -1.39688         0.75455         1.67471
C         -0.00776         1.41977         1.55939
C          1.25638         0.66708         1.25901
C          2.58579         1.42980         1.21359
C          3.72781         0.79612         0.45852
C          5.06010         1.49077         0.52993
C          6.21021         0.85539        -0.21373
C          7.56738         1.54890        -0.01395
C          8.61926         0.88807        -0.88969
C          9.83802         1.66401        -1.24935
C         11.09196         0.87139        -1.41393
C         -9.50623         2.76840        -1.37616
C         -8.57406         3.54167        -0.78332
C         -7.71240         3.04914         0.39597
C         -6.32590         3.76003         0.43406
C         -5.08357         2.95672         0.81348
C         -3.74333         3.62811         0.74442
C         -2.44842         2.86683         0.68354
C         -1.15747         3.64100         0.94153
C          0.08813         2.91700         1.34649
C          1.34090         3.66650         1.77797
C          2.63868         2.90183         1.55481
C          3.89131         3.72039         1.28543
C          5.08424         2.97784         0.71556
C          6.13180         3.71628        -0.08346
C          7.41781         3.01754        -0.41705
C          8.67639         3.78310        -0.63643
C          9.82255         3.12822        -0.95039
C         -8.62998         5.05224        -0.93951
C         -7.27290         5.73497        -1.02153
C         -6.17271         5.10709        -0.23170
C         -4.79546         5.64756        -0.48721
C         -3.61969         4.98799         0.13380
C         -2.43367         5.81772         0.53082
C         -1.23856         5.12726         1.14312
C          0.01711         5.90901         1.40723
C          1.32893         5.17656         1.70767
C          2.61988         5.98847         1.63460
C          3.91840         5.22039         1.40077
C          5.10174         5.95066         0.79193
C          5.94806         5.23294        -0.28779
C          7.28547         5.95927        -0.46925
C          8.62737         5.26130        -0.28819
C         -7.09448         6.93519        -1.63450
C         -5.86531         7.76057        -1.46391
C         -4.69897         7.10790        -0.80103
C         -3.31120         7.62655        -1.06258
C         -2.28073         7.16649        -0.07256
C         -0.84439         7.69478        -0.29738
C          0.04921         7.36180         0.94555
C          1.29740         8.18063         1.06324
C          2.59296         7.49154         1.45779
C          3.88083         8.22516         1.10559
C          5.07299         7.43111         0.63081
C          5.89400         8.02679        -0.53502
C          7.22439         7.29857        -0.60998
C         -5.58469         8.99537        -2.24705
C         -4.36749         9.58007        -2.28716
C         -3.13697         8.94639        -1.73451
C         -1.90985         9.70776        -1.39253
C         -0.86297         9.16356        -0.70432
C          0.33989         9.93252        -0.43242
C          1.37622         9.48046         0.32221
C          2.51724        10.40867         0.70705
C          3.85628         9.68210         0.77611
C          5.03873        10.27828         0.08980
C          6.02868         9.52842        -0.41104
C        -11.09140        -0.67791        -1.24049
C         -9.97448        -1.52737        -0.72253
C         -8.83580        -0.81647        -0.07859
C         -7.50548        -1.49074        -0.02797
C         -6.32690        -0.72219         0.45355
C         -5.08233        -1.53565         0.78847
C         -3.90851        -0.75736         1.31229
C         -2.64957        -1.49938         1.66260
C         -1.38475        -0.74223         1.34124
C         -0.13746        -1.46931         0.96333
C          1.15388        -0.72192         0.69217
C          2.37719        -1.43366         0.19471
C          3.65462        -0.63469        -0.00563
C          4.89526        -1.39828        -0.39930
C          6.15648        -0.59427        -0.58561
C          7.43547        -1.35446        -0.82961
C          8.71312        -0.59207        -0.67026
C         10.01021        -1.30903        -0.81501
C         11.16335        -0.46908        -1.25216
C         -9.70902        -2.89273        -1.34282
C         -8.61733        -3.69325        -0.63874
C         -7.57787        -2.98481         0.15799
C         -6.44486        -3.75066         0.78264
C         -5.11348        -3.03505         0.92326
C         -3.91335        -3.78515         1.47045
C         -2.62159        -3.02535         1.66600
C         -1.28852        -3.74974         1.47360
C         -0.12107        -2.97809         0.89081
C          1.15625        -3.67951         0.51747
C          2.46446        -2.91672         0.46432
C          3.77674        -3.63230         0.32085
C          4.97288        -2.88384        -0.23942
C          6.33974        -3.58738        -0.11388
C          7.51077        -2.83810        -0.72507
C          8.84630        -3.52025        -0.69549
C          9.98153        -2.80249        -0.89837
C         -8.51034        -5.02870        -0.86345
C         -7.44886        -5.85699        -0.31699
C         -6.42977        -5.30394         0.68454
C         -4.99980        -5.84871         0.30798
C         -3.87533        -5.27010         1.16509
C         -2.55909        -6.01346         1.16081
C         -1.25388        -5.25454         1.31195
C          0.03534        -5.98641         0.93428
C          1.24236        -5.19208         0.49656
C          2.52826        -5.90586         0.16332
C          3.82822        -5.13825         0.18431
C          5.05116        -5.77707        -0.39877
C          6.28114        -4.98465        -0.70832
C          7.56652        -5.75666        -0.83989
C          8.86912        -5.02932        -0.46201
C         -7.39558        -7.19352        -0.57670
C         -6.34747        -8.04548         0.02697
C         -5.09155        -7.37150         0.51299
C         -3.81882        -8.16187         0.60593
C         -2.54841        -7.37278         0.49345
C         -1.26705        -8.05546         0.21285
C          0.04536        -7.44911         0.57429
C          1.28434        -8.16935         0.13585
C          2.58146        -7.43057         0.17293
C          3.71897        -8.32998         0.62964
C          5.08521        -7.12594        -1.11814
C          6.30690        -7.92859        -0.80391
C          7.48609        -7.24260        -0.69322
C         -6.24462        -9.47088        -0.36195
C         -5.10091       -10.18095        -0.29008
C         -3.81464        -9.64183         0.22441
C         -2.55174       -10.25221        -0.23586
C         -1.30178        -9.90832         0.45023
C         -0.00642       -10.14258        -0.19024
C          1.29441        -9.73798         0.43659
C          2.56286       -10.30469        -0.20469
C          3.74565        -9.63529        -0.10947
C          5.04744       -10.12208        -0.56793
C          6.18050        -9.38671        -0.76777
O          6.36379         3.13176        -1.40406
O          8.77926         1.32010        -2.24827
O          3.39998         0.48360        -0.91483
O         -3.83474        -9.20111         1.62985
O          4.82418        -5.75382         1.05504
O          1.25763         4.44445         2.97972
O         -2.77678         7.05293         1.26037
O         -4.51693         0.88891        -0.44557
O         -4.43593         3.48481         2.01309
O          0.17394        -3.33185        -0.49756
O          4.66640        -2.31064        -1.52997
O         -1.09615        -0.97661        -0.05679
O         -8.48111         3.56594         1.42809
O         -4.71342        -2.40025        -0.33398
O          7.30826        -2.19777        -2.01753
O          4.30178         4.39708         2.52574
O         -6.72733        -5.82879         1.93653
O          4.20452         9.22914         2.12364
O          4.27942        -7.43163        -1.97219
O         -3.51105        -0.95520         2.69207
O         -3.41440        -3.50561         2.78922
O          1.40005        -0.92882        -0.73537
O          1.94092        -7.89005        -1.08341
O          5.54198         2.05196         1.77823
O         -1.93186        -7.47061        -0.86872
O         -8.93667         1.17587         1.28259
O          5.15922         5.31267        -1.45200
O         -2.22838         1.95171        -0.42968
O          1.63125        -5.49806        -0.89053
O          4.42871        -8.09985         1.58539
O          2.94163         1.87645         2.54561
O         -2.86564         7.64395        -2.42633
O         -6.42678         4.98796         1.19915
O          0.76359         0.80441         2.63059
O          0.19183         8.27194         2.04473
O         -0.94902         5.63641         2.46719
O          5.95980         0.46737        -1.57741
O          9.47487        -0.91543         0.52633
O         -3.45712        -6.05782         2.30027
O         -0.99895        -4.61320         2.60049
O         -3.87771         4.87902        -1.31575
O         -6.60086        -0.86972        -0.97948
O         -6.08494        -7.75666         1.47279
O         -5.54530         7.96544        -0.01280
O          0.23646        -7.02254         1.95317
O         -7.52580        -3.28029         1.60390
O          5.85726         6.79828         1.69367
O         -0.15548         3.25999        -0.05812
O          6.86394        -5.20717        -2.00692
O         -9.85742        -1.46223         0.73738
O          2.66539         6.90308         2.77538
O          3.31256        -3.18344         1.63472
O         -0.31895         6.91882        -1.31287
O         -8.76799         0.76020        -2.39561
H         -9.08814         1.19254        -3.21552
O         -9.30960        -2.69107        -2.71035
H         -8.61206        -2.00144        -2.73862
O          1.38199        -9.94099         1.83189
H          0.47824        -9.93872         2.22672
O          9.09569        -5.25797         0.93760
H          8.46552        -4.69097         1.44049
O         -4.66928        -5.54606        -1.04530
H         -5.44659        -5.70386        -1.62288
O         -1.78990         0.95723         3.03777
H         -1.02674         0.75744         3.62380
O          8.04320         1.40281         1.32536
H          7.35843         1.74883         1.94652
O         -1.30909       -10.00037         1.82950
H         -2.24094        -9.87561         2.14806
O          8.94522         5.34404         1.11603
H          8.55122         6.16225         1.48557
O         -9.45491         5.38421        -2.04822
H         -9.76460         6.30595        -1.94679
O         -6.56061         0.57087         2.48231
H         -7.50205         0.69924         2.73948
O          5.13679         7.84124        -1.74836
H          5.11955         6.86013        -1.96346
O          6.64191        -3.72001         1.29477
H          5.99810        -4.36122         1.68760
O          2.63493        11.50797        -0.18526
H          1.92189        12.14940         0.00298
H         12.12395        -0.97914        -1.42473
H         12.00309         1.42100        -1.69886
H         10.76729         3.68667        -1.04341
H          9.41096         5.81798        -0.87985
H          8.14624         7.89159        -0.72985
H          6.90596        10.00494        -0.87466
H          5.10933        11.37601         0.08847
H          2.28103        10.79732         1.74011
H          0.40494        10.93911        -0.87545
H         -1.85527        10.76024        -1.71362
H         -4.24660        10.53556        -2.82055
H         -6.43585         9.48274        -2.74713
H         -7.92062         7.37138        -2.21888
H         -9.10823         5.43457         0.01130
H        -10.16400         3.23959        -2.12629
H        -11.77787         1.26819        -1.75288
H        -12.06791        -1.15824        -1.40788
H        -10.64855        -3.50061        -1.36649
H         -9.26210        -5.53219        -1.49136
H         -8.13965        -7.67344        -1.22960
H         -7.14535        -9.93769        -0.78832
H         -5.09198       -11.21876        -0.65437
H         -2.47128       -10.33468        -1.33303
H         -0.01746       -10.11647        -1.29261
H          2.50888       -11.29150        -0.68968
H          5.12767       -11.21270        -0.70459
H          7.10409        -9.94625        -0.98868
H          8.42206        -7.78212        -0.47883
H          9.72716        -5.48866        -1.01507
H         10.94858        -3.32602        -0.96895
