         330
 CSIRO Nanostructure Databank - Neutral Graphene Oxide Data Set
C         30.39083        57.26939         0.24917
C         30.37300        58.69084         0.16261
C         29.16755        59.43618         0.25091
C         30.41463        61.51678         0.10706
C         29.19817        60.82309         0.21519
C         32.82787        52.93893         0.10035
C         32.84080        54.34728         0.16039
C         31.54263        55.06567         0.46574
C         32.81603        57.24320         0.01537
C         31.57872        56.55696         0.21235
C         32.81225        58.64436        -0.11324
C         31.60912        59.38682         0.01553
C         32.88542        61.52599        -0.05998
C         31.63099        60.82395         0.00772
C         35.11996        48.57569         0.01127
C         35.21549        50.00368         0.19325
C         34.02909        50.75662         0.07490
C         35.27740        52.85206        -0.06384
C         34.02623        52.17148         0.04164
C         35.26461        54.30889        -0.44367
C         34.03907        55.05906         0.02151
C         35.29127        57.17513         0.05559
C         34.07605        56.50202         0.01655
C         35.36489        58.63427        -0.14939
C         34.06864        59.38193        -0.32160
C         35.35816        61.50940        -0.26448
C         34.08795        60.85309        -0.16788
C         37.78161        44.40300         0.55742
C         37.71294        45.77007         0.61498
C         36.50543        46.41503         0.12222
C         37.88909        48.78350         0.92931
C         36.07678        47.67988         0.53176
C         37.75407        50.10380         0.41368
C         36.48322        50.72965         0.26758
C         37.73481        52.84638        -0.24553
C         36.48275        52.14387        -0.00532
C         37.74006        54.30771        -0.29625
C         36.56698        54.99840        -0.15654
C         37.74725        57.18789        -0.41705
C         36.59143        56.44612         0.27093
C         37.82119        58.59466         0.11788
C         36.56482        59.40084         0.39627
C         37.78460        61.62143        -0.32980
C         36.58572        60.86931        -0.10020
C         40.18019        40.06806         0.62889
C         40.13875        41.48163         0.60380
C         38.97534        42.17662         0.87194
C         40.24350        44.35841         0.87464
C         38.93816        43.64909         1.16846
C         40.23509        45.77683         0.84866
C         38.94810        46.52961         1.17336
C         40.19183        48.63785         0.31152
C         39.00509        47.98953         0.75282
C         40.17279        50.01555        -0.02504
C         38.96943        50.75159         0.00076
C         40.16433        52.84745        -0.83549
C         38.92906        52.15319        -0.31112
C         40.23510        54.31698        -0.47521
C         39.03078        55.02183        -0.31378
C         40.28690        57.11668        -0.12621
C         39.04984        56.43275        -0.22337
C         40.30495        58.53222         0.13084
C         39.02493        59.09322         0.49049
C         40.34767        61.59024        -0.26015
C         39.04884        61.24909         0.15353
C         42.62276        35.85471         0.11219
C         42.65639        37.15366         0.88501
C         41.40628        37.96170         0.71396
C         42.67334        40.06980         0.50157
C         41.40602        39.33974         0.59222
C         42.68368        41.47279         0.39146
C         41.38548        42.22948         0.19017
C         42.74359        44.31563         0.92524
C         41.42161        43.63778         0.72659
C         42.67861        45.79242         0.67991
C         41.47036        46.46227         0.62384
C         42.71373        48.62316         0.07604
C         41.48238        47.96252         0.62695
C         42.70465        49.94272        -0.21755
C         41.41926        50.64355        -0.62143
C         42.69227        52.85114        -0.99382
C         41.45834        52.15847        -0.35556
C         42.73717        54.30158        -0.54449
C         41.49597        54.99375        -0.43395
C         42.74219        57.14510        -0.17012
C         41.51416        56.41242        -0.23145
C         42.72995        58.57571        -0.05830
C         41.48262        59.29894         0.06745
C         42.75564        61.40702        -0.08022
C         41.50113        60.76747        -0.02229
C         44.96703        33.14160        -0.86352
C         43.78291        33.83899        -0.67698
C         45.08164        35.70811         0.44851
C         43.77654        35.15068        -0.09713
C         45.10858        37.21810         0.39150
C         43.91839        37.92111         0.55598
C         45.13566        40.05131         0.34926
C         43.90357        39.34855         0.48199
C         45.13923        41.47652         0.29841
C         43.90575        42.17200         0.30148
C         45.19351        44.35702         0.38936
C         43.88049        43.66953         0.10627
C         45.21937        45.74470         0.50788
C         43.97344        46.55941         0.79587
C         45.24995        48.59829         0.06516
C         43.96910        47.80893        -0.07802
C         45.25409        49.97231        -0.09415
C         43.96119        50.75146        -0.02438
C         45.27766        52.83159        -0.65815
C         44.00033        52.07029        -0.77177
C         45.20058        54.29350        -0.52697
C         43.97466        54.99015        -0.42548
C         45.19152        57.15848        -0.09371
C         43.97970        56.44008        -0.23765
C         45.18905        58.55337         0.05221
C         43.96843        59.26850         0.01187
C         45.20860        61.41501         0.10563
C         43.98074        60.71986         0.04062
C         46.21902        33.73768        -0.62151
C         47.51854        35.76357        -0.16568
C         46.31429        35.06502        -0.15022
C         47.57806        37.17688         0.05344
C         46.34427        37.90429         0.23644
C         47.60391        40.02563         0.16867
C         46.36496        39.32611         0.25545
C         47.61978        41.45341         0.19724
C         46.39531        42.18163         0.24138
C         47.66737        44.27711         0.39383
C         46.42688        43.60632         0.32597
C         47.71432        45.73172         0.77670
C         46.44441        46.46828         0.47070
C         47.71956        48.57031         0.20372
C         46.47280        47.86568         0.25800
C         47.71884        49.98097         0.05141
C         46.49108        50.70265        -0.07895
C         47.73850        52.80485        -0.21516
C         46.51799        52.11472        -0.25075
C         47.77076        54.26933        -0.41610
C         46.46961        55.02316        -0.47935
C         47.73826        57.19033        -0.37414
C         46.49074        56.41753         0.10907
C         47.74477        58.60559         0.14999
C         46.44383        59.26596         0.51960
C         47.65873        61.44935         0.23877
C         46.44666        60.75492         0.24400
C         48.78876        37.87552        -0.01125
C         50.05963        39.99956         0.03081
C         48.83579        39.29537         0.06947
C         50.10165        41.41149         0.10006
C         48.86681        42.14685         0.18129
C         50.14369        44.26894         0.25227
C         48.88977        43.56436         0.28349
C         50.17693        45.70178         0.24455
C         48.96700        46.44279         0.34489
C         50.20815        48.55036         0.06820
C         48.96696        47.84553         0.22428
C         50.19385        49.97379         0.02077
C         48.96051        50.69170         0.03484
C         50.20180        52.84105         0.10062
C         48.96040        52.11025        -0.02100
C         50.18906        54.24342         0.22138
C         48.99127        55.02035        -0.00395
C         50.12511        57.17831         0.62654
C         48.98264        56.40070         0.00905
C         50.18819        58.62703         0.20035
C         48.92461        59.31945         0.21921
C         50.13225        61.46529         0.29472
C         48.91808        60.77908         0.29098
C         51.32604        42.12411         0.08613
C         52.59766        44.25358         0.04883
C         51.36018        43.53281         0.14061
C         52.63780        45.63262         0.00892
C         51.42079        46.38799         0.09538
C         52.68435        48.50177        -0.12595
C         51.44307        47.81560         0.03093
C         52.66063        49.95774        -0.31713
C         51.41803        50.71388        -0.03814
C         52.73116        52.81736         0.38877
C         51.43354        52.09912         0.08044
C         52.72552        54.27326         0.02659
C         51.46393        54.96769         0.35994
C         52.62031        57.17714        -0.09044
C         51.45911        56.44366         0.50890
C         52.65318        58.64568         0.07851
C         51.39086        59.32987         0.17828
C         52.60887        61.45432         0.29416
C         51.38756        60.78272         0.23259
C         53.97810        46.31741        -0.16992
C         55.15013        48.52691        -0.18574
C         53.93091        47.83126        -0.16336
C         55.23707        49.94489        -0.19048
C         53.97975        50.69851        -0.35414
C         55.17907        52.82734        -0.07984
C         53.98454        52.13363        -0.06641
C         55.17313        54.27234        -0.10653
C         53.89918        54.95912        -0.15801
C         55.16974        57.18820        -0.66286
C         53.86354        56.42296        -0.43828
C         55.12702        58.62854        -0.14364
C         53.86462        59.32267         0.04872
C         55.07285        61.43216         0.37821
C         53.86124        60.76367         0.24065
C         56.42706        50.67160        -0.07791
C         57.62544        52.84180         0.00622
C         56.44313        52.10227        -0.09431
C         57.62494        54.26875         0.04337
C         56.37442        54.99076        -0.08881
C         57.57670        57.11837        -0.00483
C         56.39253        56.43025        -0.17105
C         57.60508        58.59547        -0.15713
C         56.31298        59.31959        -0.03554
C         57.50765        61.41969         0.53314
C         56.32883        60.74062         0.29865
C         58.81204        54.99318         0.21301
C         59.98293        57.12161         0.58367
C         58.81626        56.41207         0.24665
C         60.00690        58.53431         0.71240
C         58.88998        59.33143         0.13779
C         59.86131        61.33165         1.36193
C         58.88826        60.85469         0.31410
C         60.98699        59.16852         1.46583
C         60.87431        60.55118         1.81878
O         58.52502        58.99605        -1.24101
O         41.35224        48.39005         2.00232
O         36.80213        48.23593         1.60904
O         47.25099        54.75605        -1.71549
O         39.02986        60.30022         1.20444
O         52.87094        56.74657        -1.48443
O         44.82675        52.15896        -1.95952
O         51.72077        55.65777         1.72169
O         53.25906        50.37294        -1.60957
O         34.89143        58.98999        -1.48521
O         59.34856        61.43871        -0.94536
H         59.02142        60.83549        -1.65416
O         35.15184        54.30461        -1.92179
H         34.32524        53.82632        -2.14651
O         38.86790        46.50453         2.63317
H         39.58277        47.10652         2.94929
O         36.37114        59.46507         1.83440
H         37.20227        59.83217         2.21186
O         41.34083        50.42508        -2.05987
H         40.71561        51.10515        -2.42408
O         47.78773        45.71213         2.26897
H         48.59916        45.21383         2.50736
O         42.51949        52.93373        -2.43475
H         43.42555        52.81965        -2.82269
O         30.45559        54.45835        -0.24563
H         30.55875        54.66686        -1.19650
O         47.69739        57.34697        -1.81599
H         47.66852        56.43750        -2.20672
O         54.90804        45.84341         0.81974
H         54.56566        46.09036         1.70306
O         41.48463        52.39258         1.06123
H         42.29310        51.95840         1.43921
O         43.87912        51.16880         1.39928
H         43.75131        50.35430         1.93678
O         39.99549        52.76395        -2.28105
H         40.78182        53.19222        -2.70092
O         38.76484        43.72981         2.62439
H         38.69493        44.69275         2.85718
O         44.09634        46.99682         2.17259
H         44.07759        46.19226         2.73577
O         43.54466        43.93010        -1.29688
H         44.33469        43.73357        -1.84316
O         42.72898        36.79661         2.30781
H         43.56906        36.28330         2.42604
O         49.78242        57.26285         2.04432
H         50.25887        56.51864         2.48678
O         52.80946        52.79109         1.87427
H         52.37325        53.60758         2.20757
O         55.35059        57.29079        -2.10049
H         54.44997        57.37319        -2.49126
O         41.25005        42.40455        -1.26286
H         42.00806        42.97546        -1.55313
O         37.45219        57.19145        -1.83317
H         38.16455        57.67244        -2.30174
O         46.38144        59.12569         1.99988
H         45.60801        59.64586         2.30856
O         43.93466        47.31801        -1.45335
H         43.78205        48.08472        -2.04616
O         36.89704        56.46486         1.69569
H         36.12377        56.11351         2.18385
O         45.10035        35.35252         1.88029
H         45.10759        34.37280         1.93358
O         43.13855        44.13153         2.33121
H         42.36523        44.36506         2.88884
O         46.62978        56.22575         1.54334
H         46.65756        57.12110         1.96188
H         29.44319        56.72734         0.38453
H         28.21136        58.90424         0.35752
H         30.41707        62.61628         0.10299
H         28.25974        61.39090         0.28735
H         31.86202        52.41960         0.18491
H         31.31978        54.91045         1.55995
H         32.87595        62.62512        -0.00314
H         34.26504        48.19362        -0.56801
H         33.06609        50.22626         0.03743
H         35.35521        62.59948        -0.42619
H         36.90528        43.83302         0.20960
H         35.89959        45.85410        -0.60669
H         37.70723        62.51038        -0.97597
H         39.24776        39.51187         0.81329
H         38.06162        41.60578         1.10512
H         40.50852        62.53493        -0.80304
H         41.65266        35.43196        -0.19273
H         40.44497        37.43315         0.80923
H         42.77989        62.50435        -0.16211
H         44.93418        32.12695        -1.28504
H         42.82443        33.38785        -0.97174
H         45.19777        62.51351         0.03099
H         47.13622        33.20698        -0.91648
H         48.43738        35.24311        -0.47819
H         47.64653        62.54486         0.12734
H         49.72797        37.31764        -0.14015
H         51.00177        39.43649        -0.04191
H         50.13194        62.56508         0.34159
H         52.27077        41.56568         0.00904
H         53.53652        43.68474        -0.02191
H         52.61916        62.55001         0.39790
H         54.40020        45.99471        -1.16207
H         56.08049        47.93978        -0.15809
H         55.08044        62.51817         0.55396
H         57.38243        50.13428         0.02305
H         58.58997        52.31531         0.06925
H         57.45258        62.49680         0.75660
H         59.76277        54.45386         0.33946
H         60.87597        56.55375         0.88728
H         59.79280        62.38551         1.66952
H         61.80452        58.57269         1.89661
H         61.61214        60.96792         2.52010
