         600
 CSIRO Nanostructure Databank - Neutral Graphene Oxide Data Set
C         23.16314        27.39646        -1.53523
C         23.14537        28.77309        -1.40627
C         23.15925        31.71462        -1.41204
C         23.15415        33.09812        -1.31844
C         23.14832        36.04743        -0.96076
C         23.12182        37.40547        -0.66238
C         23.03716        40.14069         0.51883
C         23.02501        41.51416         0.68298
C         23.00972        44.39427         1.12318
C         22.99831        45.75170         1.32345
C         25.64007        24.62742        -1.91167
C         24.43644        25.27997        -1.78195
C         25.61069        27.40418        -1.40064
C         24.38998        26.68802        -1.56872
C         25.57802        28.81700        -1.20009
C         24.34389        29.51694        -1.25795
C         25.53740        31.67373        -0.87832
C         24.33585        30.97075        -1.18006
C         25.51657        33.08921        -0.68006
C         24.30712        33.80711        -0.92116
C         25.39346        35.82599        -0.02427
C         24.27187        35.23122        -0.66767
C         25.16872        37.10683         0.52343
C         24.15331        37.98405         0.11628
C         25.48128        40.13891         0.47494
C         24.24442        39.41750         0.42409
C         25.45799        41.57081         0.47877
C         24.22415        42.26003         0.64854
C         25.40740        44.43261         0.61369
C         24.21298        43.70370         0.78212
C         25.39359        45.85999         0.77304
C         24.18869        46.51460         1.16063
C         25.35322        48.64165         1.21760
C         24.19334        47.91645         1.37361
C         28.17946        23.41814        -2.70084
C         28.14352        24.68678        -2.07585
C         26.87918        25.32692        -1.80356
C         28.08629        27.43235        -1.33019
C         26.85692        26.70994        -1.48492
C         28.02887        28.83413        -1.07972
C         26.81333        29.52255        -1.00041
C         27.94779        31.65183        -0.44183
C         26.77787        30.95948        -0.75717
C         27.95022        33.06587        -0.24371
C         26.71822        33.78757        -0.30413
C         27.93210        35.89835         0.16353
C         26.69032        35.17753         0.02464
C         28.02139        37.34043         0.25649
C         26.94786        38.13774         0.69803
C         27.94937        40.20628        -0.03431
C         26.77700        39.49769         0.37611
C         27.90407        41.65727        -0.01732
C         26.67823        42.31859         0.29932
C         27.84732        44.48410         0.15977
C         26.65404        43.74542         0.34010
C         27.77987        45.97928        -0.03901
C         26.56814        46.63078         0.57043
C         27.80234        48.78031         0.68529
C         26.55910        48.01349         0.79708
C         27.81774        50.15957         0.84193
C         30.57752        23.58740        -2.86430
C         29.38191        22.90994        -3.15812
C         30.64169        24.74151        -2.06465
C         29.37299        25.37913        -1.81308
C         30.58211        27.43419        -1.17892
C         29.33402        26.74638        -1.42224
C         30.55266        28.80608        -0.85431
C         29.30593        29.63456        -1.09831
C         30.44901        31.68110        -0.21747
C         29.19849        30.85059        -0.17623
C         30.43846        33.05828        -0.11393
C         29.17695        33.78140        -0.09309
C         30.40907        35.93473        -0.14769
C         29.16835        35.19527        -0.00571
C         30.39948        37.33050        -0.32905
C         29.19355        38.05860        -0.14832
C         30.36565        40.21548        -0.67538
C         29.14454        39.48604        -0.26379
C         30.33397        41.74291        -0.58539
C         29.08623        42.41100        -0.18032
C         30.33305        44.57644        -0.10627
C         29.08449        43.82448        -0.04474
C         30.29231        45.97462         0.10363
C         29.07294        46.68628         0.28879
C         30.28652        48.82680         0.64779
C         29.05104        48.07871         0.51256
C         30.25092        50.25706         0.83330
C         29.02825        50.89036         0.89713
C         33.42715        20.33564        -1.82805
C         32.52992        21.04370        -2.61934
C         33.30308        23.18588        -1.65299
C         32.50524        22.43965        -2.54531
C         33.13592        24.62249        -1.42230
C         31.89908        25.33448        -1.59364
C         33.02341        27.42154        -0.86043
C         31.82613        26.70981        -1.18091
C         32.97529        28.82094        -0.60119
C         31.74594        29.48943        -0.54330
C         32.96456        31.67934         0.05815
C         31.68740        30.90455        -0.08526
C         32.92184        33.14197        -0.00596
C         31.68358        33.81730        -0.06536
C         32.90632        35.97225        -0.20639
C         31.66036        35.23204        -0.14896
C         32.91201        37.34458        -0.41649
C         31.64244        38.03067        -0.81817
C         32.86172        40.22986        -0.53712
C         31.66513        39.52402        -0.57250
C         32.84466        41.71654        -0.64622
C         31.59896        42.47188        -0.45441
C         32.85641        44.55400        -0.09653
C         31.59621        43.86154        -0.24618
C         32.86701        46.02054        -0.01213
C         31.53692        46.76676         0.08667
C         32.76197        48.84445         0.89970
C         31.50268        48.15285         0.56643
C         32.80050        50.30892         0.80608
C         31.51618        51.07423         1.01348
C         32.71508        52.98676        -0.02214
C         31.54452        52.35789         0.22111
C         35.43969        18.90773        -0.24643
C         35.47251        20.30058        -0.42019
C         34.39154        21.02844        -1.07196
C         35.48597        23.16614        -0.48104
C         34.36509        22.45468        -1.02880
C         35.47838        24.58427        -0.49198
C         34.28137        25.30749        -0.87407
C         35.46117        27.42951        -0.32090
C         34.26328        26.71451        -0.71728
C         35.46961        28.83130        -0.24943
C         34.26379        29.59556        -0.70830
C         35.41106        31.70076         0.01032
C         34.23355        30.99991        -0.18945
C         35.38952        33.13437         0.14787
C         34.15436        33.85022         0.01614
C         35.38329        35.98609         0.04472
C         34.15633        35.26281        -0.06229
C         35.40030        37.38887        -0.10443
C         34.19743        38.08267        -0.68700
C         35.32978        40.25929        -0.08033
C         34.13160        39.56627        -0.39719
C         35.35530        41.69679         0.01295
C         34.16382        42.45653        -0.37399
C         35.32102        44.57278         0.21363
C         34.08676        43.88717        -0.03262
C         35.31536        45.99963         0.40358
C         34.10462        46.68447         0.39726
C         35.31577        48.87006         0.68823
C         34.07261        48.09342         0.79818
C         35.26193        50.25328         0.69481
C         34.00575        50.98399         0.66744
C         35.19515        53.11423         0.13257
C         34.00477        52.40355         0.31811
C         35.24620        54.46367        -0.34283
C         37.70029        18.89281         0.65978
C         36.52138        18.22612         0.31786
C         37.76671        20.30022         0.49014
C         36.62761        21.01328         0.00723
C         37.83179        23.14260         0.29306
C         36.64470        22.44414        -0.05455
C         37.84467        24.56386         0.26018
C         36.65622        25.28185        -0.07800
C         37.84417        27.40780         0.34916
C         36.66361        26.70881        -0.01948
C         37.84155        28.83606         0.40011
C         36.64716        29.55047         0.08762
C         37.83315        31.68880         0.45737
C         36.65318        30.97856         0.14474
C         37.82332        33.12066         0.49733
C         36.60004        33.84113         0.32850
C         37.80032        35.98663         0.55609
C         36.60075        35.27492         0.33193
C         37.79220        37.42051         0.54788
C         36.57399        38.12705         0.19967
C         37.69407        40.26707         0.85245
C         36.53670        39.53949         0.21702
C         37.77213        41.72729         0.52627
C         36.54478        42.41549         0.30012
C         37.77994        44.56183         0.46585
C         36.54425        43.85829         0.30680
C         37.78343        45.99676         0.53642
C         36.56108        46.71646         0.56282
C         37.79095        48.84812         0.67166
C         36.56495        48.14328         0.64233
C         37.80086        50.28880         0.66013
C         36.52025        51.00776         0.76784
C         37.75868        53.12666         0.03241
C         36.49690        52.49982         0.48256
C         37.70506        54.43276        -0.45589
C         36.44063        55.09884        -0.57608
C         40.10414        16.03305         1.04835
C         38.93059        16.69881         1.06622
C         40.17968        18.88040         1.11026
C         38.85629        18.18031         1.33724
C         40.20694        20.28145         0.99230
C         38.98916        21.01324         0.75015
C         40.25607        23.12663         0.83595
C         39.02451        22.41840         0.63376
C         40.26697        24.54771         0.82434
C         39.05483        25.26331         0.56864
C         40.24870        27.36614         0.97330
C         39.05694        26.68187         0.61628
C         40.18160        28.80655         1.22287
C         39.00607        29.55845         0.77552
C         40.26737        31.69542         0.93342
C         39.03486        30.96797         0.75712
C         40.26671        33.12169         0.83039
C         39.03797        33.83436         0.68277
C         40.25470        35.95294         0.89638
C         39.03500        35.26164         0.72952
C         40.22437        37.41331         1.23281
C         38.98981        38.13689         0.77015
C         40.23252        40.26398         0.81945
C         39.01133        39.54600         0.74170
C         40.24689        41.69169         0.73956
C         39.00072        42.41102         0.60311
C         40.25196        44.55470         0.58431
C         39.01192        43.85013         0.53641
C         40.25931        45.98766         0.60989
C         39.02461        46.70307         0.60000
C         40.25987        48.83088         0.74001
C         39.02807        48.12781         0.65413
C         40.26099        50.32208         1.00976
C         38.98560        51.01071         0.58865
C         40.23482        53.03555        -0.03893
C         39.00088        52.40593         0.21900
C         40.26366        54.36008        -0.67244
C         38.94415        55.10712        -0.90344
C         40.22347        57.21056        -1.07217
C         39.02879        56.57653        -0.99407
C         42.58379        16.01207         1.17312
C         41.37710        16.72063         1.14442
C         42.65483        18.83418         1.15093
C         41.39790        18.14958         1.15416
C         42.67977        20.26141         1.12897
C         41.45858        20.98295         1.03812
C         42.71501        23.11278         1.12094
C         41.47616        22.40907         1.00822
C         42.72201        24.53807         1.16262
C         41.49282        25.25313         1.04413
C         42.72074        27.39839         1.27480
C         41.47615        26.68000         1.12825
C         42.75406        28.81996         1.26716
C         41.50641        29.57678         1.38258
C         42.72817        31.70472         0.98938
C         41.49408        31.01374         1.09240
C         42.73018        33.12602         0.89698
C         41.49379        33.83796         0.87571
C         42.73437        35.99371         0.88545
C         41.48363        35.26666         0.90023
C         42.74339        37.40799         0.87676
C         41.50277        38.15026         0.92552
C         42.76582        40.28183         1.11791
C         41.48337        39.53033         0.87457
C         42.73565        41.72258         0.69700
C         41.49135        42.40627         0.67851
C         42.72391        44.54730         0.52975
C         41.48867        43.83982         0.58731
C         42.73573        45.97836         0.61304
C         41.48836        46.70052         0.68674
C         42.72424        48.87438         0.96337
C         41.46338        48.12374         0.77854
C         42.73812        50.32020         0.64745
C         41.52201        51.00962         0.55438
C         42.73198        53.07177         0.00003
C         41.49738        52.37530         0.18475
C         42.73244        54.47988        -0.32655
C         41.51123        55.13834        -0.62368
C         42.70719        57.23104        -0.94416
C         41.48679        56.51640        -0.91728
C         43.80730        16.68217         1.20258
C         45.13926        18.80180         1.16770
C         43.87231        18.08922         1.18016
C         45.15872        20.22674         1.16372
C         43.92840        20.96442         1.15867
C         45.19562        23.09084         1.20164
C         43.94555        22.38379         1.17323
C         45.21304        24.51877         1.28837
C         43.96106        25.25346         1.30275
C         45.19115        27.42191         1.51945
C         43.94030        26.66260         1.35015
C         45.21195        28.85401         1.17816
C         43.97046        29.54857         1.12553
C         45.18933        31.68195         0.85444
C         43.96433        30.97720         1.00264
C         45.19090        33.11033         0.75972
C         43.96319        33.83804         0.82295
C         45.19393        35.96598         0.62386
C         43.96322        35.26422         0.78524
C         45.20264        37.38880         0.55653
C         43.98062        38.11806         0.71071
C         45.19886        40.23674         0.44759
C         43.99712        39.53228         0.68550
C         45.19507        41.67407         0.36630
C         43.95501        42.39887         0.48659
C         45.18173        44.53707         0.23970
C         43.96069        43.83635         0.40260
C         45.18716        45.97117         0.31585
C         43.96967        46.66034         0.57592
C         45.24541        48.85686         0.49704
C         44.02231        48.10923         0.82357
C         45.22368        50.26940         0.47332
C         43.97121        50.99352         0.45792
C         45.21313        53.11431         0.10750
C         43.96682        52.39349         0.18900
C         45.20841        54.51426        -0.15227
C         43.95212        55.20566        -0.38824
C         43.90696        56.58676        -0.70171
C         47.57655        18.79003         1.11392
C         46.36975        18.11124         1.14796
C         47.62687        20.20062         1.10414
C         46.40444        20.92805         1.13807
C         47.66457        23.06373         1.08597
C         46.41986        22.36574         1.14831
C         47.67845        24.48984         1.10380
C         46.45735        25.19342         1.27529
C         47.71469        27.39003         1.07593
C         46.50955        26.65147         1.48240
C         47.65785        28.76926         0.87982
C         46.43088        29.52304         0.95426
C         47.61417        31.67602         0.52022
C         46.42451        30.95836         0.76430
C         47.63776        33.09266         0.44840
C         46.41455        33.81941         0.58635
C         47.64345        35.94109         0.28589
C         46.41895        35.24141         0.50075
C         47.65238        37.36218         0.21203
C         46.42705        38.08930         0.35976
C         47.64536        40.21366         0.05673
C         46.42369        39.51159         0.28666
C         47.61138        41.62619        -0.09458
C         46.40778        42.35865         0.08100
C         47.59940        44.51754        -0.20121
C         46.41866        43.81455         0.02687
C         47.59847        45.98335        -0.25978
C         46.39290        46.70894         0.14243
C         47.68898        48.84624         0.21743
C         46.44083        48.13136         0.24610
C         47.66970        50.24832         0.41776
C         46.45683        50.98321         0.41893
C         47.66460        53.16304         0.30087
C         46.45090        52.42828         0.31222
C         47.63704        54.54182         0.03357
C         46.43901        55.20257        -0.19545
C         50.12570        20.23272         1.05306
C         48.89369        20.91120         1.06137
C         50.14141        23.04068         0.99549
C         48.89976        22.33653         1.03608
C         50.13711        24.48135         0.90474
C         48.92732        25.20107         0.96151
C         50.13128        27.33903         0.60976
C         48.93572        26.64989         0.85474
C         50.17364        28.75727         0.52027
C         48.87558        29.45439         0.40858
C         50.12358        31.68335         0.25020
C         48.85776        30.94583         0.24565
C         50.10994        33.06217         0.12657
C         48.86154        33.79167         0.20322
C         50.08981        35.91154        -0.09604
C         48.86500        35.20674         0.13478
C         50.10190        37.32950        -0.15388
C         48.88086        38.06470         0.00041
C         50.12112        40.19378        -0.21505
C         48.87902        39.48729        -0.06912
C         50.13410        41.60378        -0.33055
C         48.85278        42.30900        -0.48895
C         50.15467        44.53035        -0.33659
C         48.86152        43.84015        -0.54443
C         50.18946        45.93446        -0.14247
C         48.94115        46.72370        -0.26204
C         50.17243        48.80483         0.28498
C         48.94687        48.14795         0.12726
C         50.20565        50.23094         0.49757
C         48.93421        50.94388         0.68231
C         50.23795        53.11347         0.38498
C         48.94072        52.48923         0.63590
C         51.33417        20.92753         1.04719
C         52.67539        23.08418         1.19440
C         51.36807        22.32553         1.01311
C         52.58953        24.48481         0.63446
C         51.39007        25.15771         0.66986
C         52.63754        27.32386         0.83479
C         51.40246        26.61325         0.27292
C         52.64091        28.78974         0.41103
C         51.37719        29.46457         0.39795
C         52.61085        31.63783        -0.03086
C         51.40206        30.96614         0.56635
C         52.58165        33.02362        -0.29394
C         51.34120        33.77929        -0.13933
C         52.49452        35.88932        -0.75993
C         51.29920        35.16090        -0.29865
C         52.55191        37.34771        -0.56381
C         51.34591        38.04375        -0.32632
C         52.58479        40.17438        -0.42180
C         51.35414        39.47123        -0.30200
C         52.58945        41.60588        -0.37123
C         51.35409        42.32668        -0.36495
C         52.60625        44.45428        -0.18953
C         51.35749        43.77216        -0.32208
C         52.63337        45.88143         0.00339
C         51.41086        46.61494         0.05575
C         52.62627        48.74399         0.36405
C         51.43398        48.07086         0.22495
C         52.72288        50.23988         0.57172
C         51.39536        50.94974         0.52051
C         51.38868        52.38203         0.46747
C         54.94473        22.94794         0.13167
C         53.91066        22.35236         0.73379
C         54.95322        24.39215        -0.31218
C         53.81658        25.19302         0.29069
C         55.14564        27.29570         0.41174
C         53.87362        26.55603         0.41786
C         55.13029        28.80083         0.27917
C         53.82188        29.48687         0.17820
C         55.02933        31.56744        -0.46815
C         53.81801        30.90566        -0.12512
C         55.01459        32.97293        -0.69111
C         53.79679        33.67908        -0.63272
C         55.05233        35.87239        -0.88589
C         53.78433        35.12253        -0.93763
C         55.02988        37.29726        -0.84952
C         53.79094        38.02707        -0.68681
C         55.05048        40.15700        -0.66496
C         53.81117        39.45114        -0.57961
C         55.07408        41.58251        -0.50286
C         53.83191        42.30846        -0.33431
C         55.08677        44.43615        -0.01425
C         53.82000        43.71569        -0.19020
C         55.09285        45.90261        -0.12381
C         53.87562        46.57266         0.04747
C         55.05761        48.73586        -0.32968
C         53.94696        48.02525         0.41902
C         54.85246        50.09168        -0.73153
C         53.73665        50.79797        -0.39792
C         57.46903        24.43666        -0.85030
C         56.32141        25.04878        -0.15436
C         57.57615        27.28798        -0.36491
C         56.40020        26.53728         0.11197
C         57.55886        28.69995        -0.47851
C         56.33767        29.48052        -0.25459
C         57.43385        31.50270        -1.25943
C         56.26386        30.81343        -0.59690
C         57.46005        33.00260        -1.04135
C         56.26614        33.70139        -0.91336
C         57.49761        35.86527        -1.04515
C         56.26104        35.15131        -0.92667
C         57.49214        37.29446        -1.06807
C         56.25882        38.01106        -0.92893
C         57.49957        40.15387        -1.01162
C         56.26665        39.44304        -0.86562
C         57.50987        41.58061        -0.92671
C         56.30448        42.26233        -0.59804
C         57.56582        44.46406        -0.68401
C         56.38915        43.68872        -0.25779
C         57.51312        45.88709        -0.69905
C         56.30610        46.60525        -0.38397
C         57.44792        48.71467        -1.00193
C         56.25999        48.03503        -0.56584
C         58.62563        25.12444        -1.01013
C         59.90313        27.24080        -1.10262
C         58.72016        26.54944        -0.76589
C         59.92737        28.62577        -1.10559
C         58.75449        29.37341        -0.85275
C         59.91575        31.55626        -1.02001
C         58.75135        30.82012        -0.98415
C         59.90645        32.96685        -1.14401
C         58.71814        33.69972        -1.13715
C         59.92127        35.88219        -1.30912
C         58.72423        35.15120        -1.15730
C         59.91869        37.26710        -1.34128
C         58.72154        38.00263        -1.21702
C         59.90725        40.19479        -1.39316
C         58.72219        39.45137        -1.21940
C         59.90524        41.58420        -1.36025
C         58.72526        42.31042        -1.12128
C         59.86273        44.52071        -1.49214
C         58.72161        43.77033        -1.10246
C         59.83568        45.90247        -1.49833
C         58.66635        46.60885        -1.13217
C         58.60963        48.03429        -1.24523
O         48.71287        30.04219        -0.94768
O         32.28373        31.08536         1.26024
O         48.21560        46.49208        -1.51354
O         31.72937        23.11034        -3.50110
O         33.69241        42.18640        -1.74530
O         32.26498        46.67387        -1.20831
O         33.39744        48.27717         2.11726
O         48.88733        51.75708         1.90228
O         55.30283        28.15559         1.60800
O         43.47583        48.49179         2.15509
O         55.91677        43.96290         1.10801
O         26.01474        37.53858         1.55536
O         40.68407        29.20510         2.53957
O         52.94919        35.46994        -2.10437
O         56.66380        25.54107         1.16883
O         48.77166        43.03845        -1.76820
O         30.20964        41.03499        -1.88230
O         39.60984        54.39771        -1.99830
O         45.92816        27.09559         2.75317
O         36.54143        51.99901         1.86420
O         53.25923        50.48811         1.93012
H         52.50626        50.43061         2.55687
O         54.72302        24.39435        -1.75554
H         53.80946        24.07761        -1.91691
O         29.09823        30.32552         1.18122
H         29.32030        31.04502         1.80848
O         40.13946        37.43888         2.71775
H         39.86763        38.34634         2.97520
O         34.37406        38.01227        -2.18242
H         35.06881        38.66408        -2.42162
O         40.28303        50.46001         2.47821
H         39.42435        50.13060         2.82008
O         52.83898        23.23661         2.64340
H         52.13944        23.84655         2.96032
O         27.61547        46.15817        -1.49862
H         28.40169        45.76127        -1.93194
O         52.58472        27.31883         2.28188
H         53.47996        27.58699         2.59451
O         29.44746        30.16254        -2.45347
H         29.45742        29.40452        -3.07472
O         51.56107        31.14996         2.03802
H         52.34237        30.62135         2.31142
O         51.53950        26.67838        -1.18045
H         50.68176        26.42001        -1.57767
O         31.59520        37.91860        -2.28927
H         32.52109        38.06123        -2.61082
O         54.36128        48.03461         1.83468
H         54.26423        48.97392         2.13730
O         42.86753        40.34286         2.60266
H         42.91267        39.41609         2.92427
O         57.20404        31.33236        -2.71166
H         57.93430        31.79512        -3.17517
O         38.58267        18.30425         2.78246
H         39.33920        17.89832         3.25658
O         31.51235        51.46564         2.43225
H         32.37219        51.89856         2.62131
O         37.39311        40.23868         2.32007
H         38.04497        40.82910         2.75624
O         34.44642        29.76230        -2.18077
H         34.58346        28.86516        -2.55524
H         22.22000        26.84181        -1.64433
H         22.17629        29.28977        -1.41321
H         22.22617        31.20401        -1.68459
H         22.21893        33.63873        -1.51644
H         22.29658        35.61582        -1.50350
H         22.28128        38.02095        -1.01215
H         22.08371        39.59500         0.49288
H         22.05692        42.01893         0.79169
H         22.07647        43.83389         1.26287
H         22.06922        46.26357         1.61264
H         25.63722        23.54456        -2.09504
H         23.49315        24.72195        -1.87133
H         25.33266        49.72158         1.41363
H         23.26237        48.41639         1.67725
H         27.25047        22.87742        -2.92147
H         26.87939        50.71948         0.94716
H         29.41782        21.99202        -3.75862
H         28.97832        51.97899         1.03794
H         33.44438        19.23965        -1.88513
H         31.86434        20.52595        -3.32169
H         32.69678        53.96260        -0.52773
H         30.59696        52.83546        -0.06819
H         34.54654        18.33316        -0.52661
H         34.31457        55.01449        -0.52809
H         36.42859        17.14278         0.47190
H         36.42000        56.13324        -0.94485
H         40.11896        14.93800         0.93603
H         37.99311        16.12711         1.01440
H         40.25435        58.30567        -1.17414
H         38.10217        57.16789        -0.99446
H         42.56513        14.91266         1.16531
H         42.69614        58.30719        -1.16867
H         44.72766        16.08424         1.22860
H         44.83433        57.17213        -0.75167
H         48.50374        18.20279         1.09208
H         46.38902        17.01362         1.15130
H         48.57048        55.12017         0.02410
H         46.46727        56.28216        -0.39007
H         50.15801        19.13575         1.07674
H         50.29476        54.18451         0.14679
H         52.26892        20.35190         1.07827
H         52.35303        52.90227         0.38102
H         55.83048        22.34756        -0.12956
H         54.00379        21.29187         1.01315
H         55.60089        50.57024        -1.38150
H         53.59722        51.81080        -0.80121
H         57.38437        23.39972        -1.20572
H         57.43247        49.80768        -1.11067
H         59.49705        24.63304        -1.46861
H         60.79902        26.67186        -1.38932
H         60.85494        29.14186        -1.38773
H         60.89011        31.06030        -0.90726
H         60.87591        33.48013        -1.17274
H         60.88161        35.36052        -1.41223
H         60.87817        37.78680        -1.46033
H         60.86281        39.68223        -1.56405
H         60.85880        42.10908        -1.50386
H         60.77901        44.00718        -1.81150
H         60.72237        46.46770        -1.81987
H         59.51352        48.57532        -1.56093
