         267
 CSIRO Nanostructure Databank - Neutral Graphene Oxide Data Set
C        -11.04400         0.45080         0.38393
C         -9.93193         1.33981         0.81632
C         -8.61491         0.70784         1.13906
C         -7.34221         1.53705         1.23808
C         -5.98904         0.86914         1.18226
C         -4.75581         1.64610         0.74491
C         -3.58176         0.82527         0.28193
C         -2.79693         1.31353        -0.93038
C         -1.43841         0.59537        -1.24818
C         -0.12593         1.32965        -1.17808
C          1.14978         0.53761        -1.21508
C          2.45391         1.24599        -1.62015
C          3.66814         0.55888        -0.94976
C          4.91505         1.34971        -0.72796
C          5.93925         0.69678         0.19999
C          7.26280         1.43724         0.31515
C          8.45797         0.75898         0.61339
C          9.59887         1.48125         1.04191
C         10.76689         0.76323         1.51817
C        -10.05152         2.81258         0.47075
C         -8.77651         3.59080         0.58973
C         -7.48564         3.00304         0.91129
C         -6.26439         3.77386         0.42104
C         -4.84759         3.17033         0.37607
C         -4.09136         3.50666        -0.98342
C         -2.70746         2.82700        -0.85785
C         -1.39163         3.52714        -0.98669
C         -0.10324         2.81782        -1.25507
C          1.07790         3.52520        -1.24131
C          2.39709         2.81744        -1.45455
C          3.68310         3.59249        -1.22585
C          4.94615         2.84484        -0.83269
C          5.90094         3.54006         0.16955
C          7.23082         2.83920         0.35616
C          8.37355         3.57134         0.76629
C          9.54341         2.88237         1.11614
C         -8.88894         5.09249         0.64918
C         -7.68122         5.83253         0.09260
C         -6.56658         4.97284        -0.48494
C         -5.28874         5.76791        -0.81877
C         -4.02827         5.03154        -1.13547
C         -2.70600         5.75496        -1.21265
C         -1.40946         5.00663        -1.19561
C         -0.14187         5.66219        -0.78891
C          1.03576         4.96187        -0.88752
C          2.30050         5.73133        -0.68980
C          3.61877         5.07374        -0.89834
C          4.89620         5.78846        -0.53070
C          6.11171         5.01502        -0.16271
C          7.30202         5.73879         0.35967
C          8.36395         5.02648         0.80129
C         -7.67509         7.17650         0.00887
C         -6.51679         7.91911        -0.63325
C         -5.22311         7.17058        -0.25380
C         -3.97235         7.92577        -0.59614
C         -2.72251         7.23643        -0.92154
C         -1.44143         7.88567        -0.44580
C         -0.23733         7.02336        -0.18312
C          0.99175         7.71461         0.31423
C          2.28542         6.97376         0.16083
C          3.54917         7.71269         0.43240
C          4.82601         7.29374        -0.29305
C          5.99431         7.85167         0.54895
C          7.33494         7.23921         0.14107
C         -6.42407         9.38045        -0.26892
C         -5.23918        10.01431        -0.17395
C         -3.95166         9.31761        -0.30699
C         -2.76027         9.98693        -0.05895
C         -1.50953         9.22282         0.29645
C         -0.21411        10.00854        -0.02349
C          1.03923         9.20922         0.33607
C          2.20139         9.85434         0.55839
C          3.48951         9.16642         0.95224
C          4.72241         9.95519         0.54309
C          5.91665         9.36010         0.42017
C        -10.98673        -0.88728         0.55639
C         -9.76300        -1.57475         0.96257
C         -8.48425        -0.77748         0.76458
C         -7.25325        -1.35118         1.51087
C         -6.01101        -0.63261         0.82466
C         -4.70276        -1.41084         0.88652
C         -3.47870        -0.66116         0.51489
C         -2.32203        -1.43726        -0.05505
C         -1.37029        -0.90594        -1.09602
C         -0.16938        -1.78590        -1.57263
C          1.16500        -0.97618        -1.43007
C          2.46373        -1.62921        -1.03390
C          3.65415        -0.79879        -0.68193
C          4.83399        -1.53794        -0.22322
C          6.14189        -0.75799        -0.25647
C          7.22670        -1.45565         0.56951
C          8.60658        -0.72499         0.34888
C          9.64937        -1.39674         1.23459
C         10.76700        -0.59059         1.66364
C         -9.72520        -2.91037         1.17846
C         -8.49162        -3.70571         1.52753
C         -7.18602        -2.87829         1.50802
C         -5.91384        -3.56248         1.15754
C         -4.69215        -2.78476         0.81140
C         -3.45626        -3.53021         0.55514
C         -2.29959        -2.88351         0.19302
C         -0.90688        -3.50188         0.32954
C         -0.11267        -3.23526        -0.96884
C          1.30437        -3.87115        -1.28761
C          2.49203        -3.08842        -0.76066
C          3.67177        -3.69290        -0.41335
C          4.84403        -2.90857        -0.03950
C          6.06403        -3.67471         0.52734
C          7.36046        -2.92928         0.20233
C          8.54171        -3.57220         0.90155
C          9.57891        -2.74089         1.47405
C         -8.36661        -4.96649         0.68556
C         -7.19126        -5.67172         0.56911
C         -5.93447        -5.01737         0.89936
C         -4.69602        -5.66530         0.96778
C         -3.44832        -4.98312         0.69729
C         -2.28849        -5.69892         0.39735
C         -1.08008        -4.95806        -0.11606
C          0.18907        -5.74216         0.07237
C          1.30910        -5.37142        -0.87711
C          2.62604        -5.93749        -0.47250
C          3.86098        -5.16323        -0.80330
C          5.12036        -5.81962        -0.31065
C          6.34153        -4.96658        -0.30322
C          7.69430        -5.72117         0.00373
C          8.59954        -4.92795         0.91304
C         -7.17136        -6.99539        -0.10599
C         -6.36456        -8.01305         0.31467
C         -4.60903        -7.05930         1.22733
C         -3.43560        -7.74265         1.09862
C         -2.23898        -7.13314         0.61724
C         -1.08377        -7.92609         0.45670
C          0.18086        -7.18549         0.45960
C          1.46110        -7.93950         0.42471
C          2.68300        -7.21168         0.04939
C          3.92412        -7.91424         0.14075
C          5.13911        -7.15977         0.05257
C          6.39281        -7.85526         0.34983
C          7.55502        -7.15669         0.43356
C         -6.00933        -9.20973        -0.45479
C         -4.83830        -9.91665        -0.53619
C         -3.53604        -9.71059         0.10414
C         -2.31497        -9.94363        -0.46075
C         -1.07232        -9.33200         0.06867
C          0.12280       -10.02177        -0.07005
C          1.43572        -9.44676         0.27711
C          2.74046       -10.07817         0.02311
C          3.92109        -9.35267         0.17468
C          5.20965       -10.01413         0.30770
C          6.35320        -9.30377         0.48203
O         -5.74415        -7.81051         1.57182
O          3.18646         3.37711        -2.56323
O          5.50722         2.02912        -1.88851
O          5.88463         5.40851        -1.55639
O         -1.99487         5.44039        -2.46196
O          2.09018        -1.38328        -2.45531
O          5.28423         3.40324         1.44155
O         -3.48929        -9.11475         1.38352
O         -6.55362         1.28465         2.43974
O         -0.32378        -3.16250         1.56748
H         -0.87072        -2.47971         2.01318
O         -6.71280         3.93851         1.77581
O         -6.27976         0.63938        -1.22331
H         -5.44817         0.69721        -1.78449
O          1.42106        -3.84792        -2.72157
H          0.76242        -4.50134        -3.05935
O         -9.54237         1.04996         2.20582
O         -3.70210         0.92087        -1.98761
H         -3.31123         1.13802        -2.86088
O         -2.23871        -0.82618         1.30335
O          7.46788        -3.14336        -1.25314
O         -1.80034        -0.27817        -2.34100
O         -1.03670        -4.35494        -1.53866
O         -3.55835         1.48292         1.57178
O         -8.70102        -4.17816         2.88439
H         -7.80816        -4.36171         3.25948
O          0.09203         7.04113         1.26393
O          1.53563        -8.77903         1.60800
O          3.49336         9.11857         2.39810
H          4.17883         8.45166         2.64664
O          3.99249        -5.11502        -2.26978
H          4.79416        -4.57297        -2.46972
O          2.98940         5.87066        -1.97917
O         -8.30999        -0.91551        -0.61976
O         -6.66880         7.82034        -2.07388
H         -7.23184         8.56128        -2.37924
O         -0.18922        10.35325        -1.41078
H         -0.55893         9.61300        -1.94036
O          6.52923        -4.28238        -1.59645
O         -4.89831         5.56739        -2.19732
O          3.03674         6.76192         1.40237
O         -4.15726         3.92094         1.37786
H         -3.55673         3.30764         1.86653
O          8.98577        -0.91430        -0.97574
O         -6.29928        -3.30860         2.60110
O         -1.82108         7.99915        -1.83377
O          0.39211        -6.07677         1.45367
O         -5.20404         6.99498         1.18726
H         -5.07509         7.87048         1.60986
O          0.60776         0.90455         0.07020
O          0.82704        -6.15590        -2.10019
O         -1.96299         3.20309         0.33450
O          1.94227        -6.79754        -2.76034
H          2.55335        -6.04042        -2.98466
O         -6.23182        -0.68162        -0.67132
O         -7.10092         4.42738        -1.71821
H         -7.16115         5.16867        -2.36116
O         -7.35974        -0.97322         2.86847
H         -6.87736        -1.63397         3.41402
O        -10.55128         2.95449        -0.87899
H         -9.92040         2.52097        -1.49136
O         -9.06583         5.43163         2.04033
H         -8.25964         5.12083         2.51384
O          5.89490        -3.93529         1.90710
H          6.09945        -3.09403         2.38593
O          2.56979         1.01674        -3.03110
H          3.31441         1.57299        -3.35807
O         -4.80949         2.99474        -2.09867
H         -5.34883         3.74164        -2.46671
O          8.43476        -5.83119        -1.24450
H          8.59328        -4.91902        -1.57782
O          6.50937        -0.73210        -1.63734
H          7.51206        -0.77001        -1.70762
O          4.85622         7.94470        -1.57751
H          4.39902         7.35389        -2.22027
O          8.35507         7.86805         0.91672
H          9.22761         7.58647         0.57515
O          6.89007        -1.40964         1.95886
H          6.38757        -0.56368         2.13156
O          5.75419         7.48298         1.92697
H          6.59974         7.61563         2.40743
O         -0.36296        -1.95563        -2.97777
H          0.49745        -2.28268        -3.33887
O         -1.59338         9.01663         1.72371
H         -0.90113         8.35366         1.97710
O          5.36407         0.72429         1.53514
H          5.27160         1.71068         1.76101
H         11.63673        -1.10133         2.10501
H         11.63716         1.35277         1.84275
H         10.42357         3.44596         1.46003
H          9.27726         5.53711         1.14384
H          7.51435         7.43630        -0.95449
H          6.82813         9.93778         0.20578
H          4.62894        11.04981         0.46735
H          2.20652        10.95630         0.53947
H         -0.21012        10.96461         0.55826
H         -2.78583        11.06140         0.17739
H         -5.20716        11.09123         0.04996
H         -7.36236         9.94597        -0.15377
H         -8.53916         7.74918         0.38292
H         -9.81515         5.42144         0.11368
H        -10.82242         3.29006         1.13333
H        -11.96126         0.92946         0.01157
H        -11.86889        -1.50788         0.33541
H        -10.67184        -3.47340         1.20771
H         -9.30509        -5.44300         0.36319
H         -7.78221        -7.11026        -1.01479
H         -6.78097        -9.50541        -1.18645
H         -4.81880       -10.69141        -1.32199
H         -2.23660       -10.51118        -1.40111
H          0.10534       -11.03429        -0.49986
H          2.78987       -11.16835        -0.12184
H          5.22693       -11.11270         0.34911
H          7.30577        -9.82517         0.65595
H          8.49687        -7.69075         0.63342
H          9.44996        -5.44868         1.37861
H         10.37165        -3.23944         2.05403
