         668
 CSIRO Nanostructure Databank - Neutral Graphene Oxide Data Set
C          6.03022        31.67039         0.39025
C          6.09238        33.02071         0.30733
C          8.49514        27.33919         0.80936
C          8.47595        28.74381         0.46157
C          7.28459        29.45067         0.51919
C          8.55374        31.56694        -0.17784
C          7.19191        30.82750         0.06017
C          8.57116        33.01621         0.01780
C          7.34613        33.73836         0.12858
C          8.61375        35.84368         0.29741
C          7.37674        35.13129         0.21478
C          8.62059        37.24192         0.34185
C         10.83984        23.06539         1.59793
C         10.80433        24.49289         1.44134
C          9.64230        25.18917         1.20447
C         10.95451        27.24431         0.71218
C          9.65702        26.61087         0.94717
C         10.96478        28.60531         0.11530
C          9.72479        29.41136         0.14655
C         11.04507        31.52182         0.02578
C          9.79123        30.79358        -0.00479
C         11.05902        32.93637         0.09923
C          9.81623        33.68925         0.14577
C         11.12388        35.77541         0.49411
C          9.83600        35.08455         0.33447
C         11.14544        37.28978         0.55506
C          9.83334        38.07214         0.65967
C         11.00837        40.01420        -0.44461
C          9.84443        39.37397        -0.09209
C         10.98946        41.39449        -0.86039
C         13.28206        18.77605         1.60534
C         13.28431        20.15594         1.84340
C         11.96121        20.87666         2.00674
C         13.29017        23.06204         1.74149
C         12.01890        22.37288         1.77430
C         13.33231        24.44488         1.56527
C         12.07227        25.26658         1.71690
C         13.45405        27.15457         0.56569
C         12.11692        26.59436         0.99946
C         13.49909        28.65751         0.53402
C         12.28865        29.34104         0.05324
C         13.50588        31.48889         0.12751
C         12.27950        30.81393         0.06705
C         13.53960        32.91881         0.07497
C         12.30898        33.63260         0.10897
C         13.57463        35.73750        -0.03706
C         12.36197        35.05273         0.14551
C         13.56119        37.19316        -0.15884
C         12.35628        37.93874         0.03056
C         13.48251        39.97855        -0.63098
C         12.29259        39.30330        -0.35204
C         13.44395        41.40375        -0.99509
C         12.15607        42.13350        -1.04123
C         13.37303        44.30866        -1.20925
C         12.18451        43.53687        -1.27091
C         13.41550        45.66837        -1.52809
C         15.64880        14.55194         0.44196
C         15.63948        15.95181         0.70715
C         14.47853        16.69300         0.85162
C         15.71587        18.73220         1.44886
C         14.49985        18.07062         1.30848
C         15.76853        20.05262         2.16995
C         14.49852        20.86381         1.97951
C         15.73134        22.99198         2.00709
C         14.53181        22.29890         1.91131
C         15.87440        24.43814         1.62643
C         14.56884        25.17182         1.53225
C         15.85545        27.27824         1.49373
C         14.62354        26.52814         1.27654
C         15.88421        28.71041         1.18916
C         14.67900        29.35632         0.70752
C         15.95058        31.43900         0.31815
C         14.73785        30.76817         0.36338
C         16.02572        32.80383        -0.32339
C         14.77241        33.61663        -0.05209
C         15.99761        35.62030        -0.91522
C         14.80185        35.01000        -0.19036
C         16.03459        37.19753        -0.93665
C         14.74221        37.86863        -0.50329
C         15.96391        40.00715        -0.48868
C         14.73519        39.29171        -0.56892
C         15.87244        41.47352        -0.14590
C         14.69753        42.18129        -0.80663
C         15.89499        44.33892        -0.85642
C         14.58364        43.68115        -0.55578
C         15.94593        45.63595        -1.61739
C         14.64427        46.41278        -1.63233
C         15.98436        48.41316        -2.38359
C         14.69154        47.74201        -1.96802
C         15.98475        49.92178        -2.21407
C         18.22046        10.38495        -0.16306
C         18.16917        11.76914         0.04004
C         16.94676        12.45480         0.18404
C         18.08906        14.65381         0.06104
C         16.85903        13.87090         0.25057
C         18.16159        15.96380         0.40835
C         16.96644        16.58054         1.11012
C         18.27785        18.73424         1.35322
C         16.95842        18.09653         0.87783
C         18.15953        20.23355         1.43514
C         17.02771        20.82778         1.87371
C         18.27257        23.04264         2.28989
C         16.99700        22.27404         2.20893
C         18.26786        24.52846         2.29490
C         16.92203        25.20248         2.46158
C         18.16983        27.44289         2.45017
C         16.96227        26.65554         2.02718
C         18.25601        28.82722         1.85014
C         17.04490        29.46323         1.36353
C         18.30185        31.56947         0.97286
C         17.12715        30.82634         0.85828
C         18.37935        32.95933         0.58447
C         17.28591        33.57549         0.00806
C         18.44321        35.80119         0.15528
C         17.41277        34.96639        -0.57549
C         18.42812        37.22475         0.01995
C         17.23527        37.90046        -0.32841
C         18.42975        40.06468        -0.15014
C         17.20608        39.32509        -0.32227
C         18.43830        41.52521        -0.53983
C         17.13027        42.24714        -0.37964
C         18.32409        44.42002        -0.37263
C         17.08348        43.63210        -0.58571
C         18.32268        45.89361        -0.62623
C         17.13497        46.50520        -1.26355
C         18.47013        48.50387        -1.76148
C         17.18006        47.78294        -1.69885
C         18.45298        49.99282        -2.00238
C         17.12790        50.66239        -2.07337
C         18.26032        52.89228        -1.99786
C         17.12464        52.10920        -2.03664
C         18.09914        54.33848        -1.93580
C         20.34562         6.74654        -2.60621
C         20.48411         7.81549        -1.70411
C         19.37715         8.41512        -1.05245
C         20.66079        10.48863        -0.58807
C         19.42648         9.71544        -0.50840
C         20.64962        11.86595        -0.53834
C         19.45608        12.57924         0.05750
C         20.42277        14.73727        -0.94323
C         19.18499        13.89846        -0.65402
C         20.42743        16.22520        -0.69300
C         19.49792        16.70455         0.41693
C         20.55140        18.97615         0.22456
C         19.43674        18.21747         0.51743
C         20.53423        20.45561         0.43545
C         19.34504        21.06505         1.10258
C         20.67517        23.17126         1.43666
C         19.56314        22.29345         1.96878
C         20.70431        24.57901         1.87015
C         19.43862        25.22742         2.31632
C         20.67340        27.33877         2.27292
C         19.47751        26.68058         2.32531
C         20.74763        28.75732         1.76336
C         19.44185        29.50953         1.86716
C         20.79140        31.61890         1.51075
C         19.40429        31.02092         1.83725
C         20.71208        33.13073         1.46694
C         19.60750        33.72009         0.90095
C         20.81294        35.90668         0.75648
C         19.59446        35.16833         0.65249
C         20.84093        37.27513         0.50306
C         19.63080        37.97240         0.25114
C         20.91816        40.10869         0.18075
C         19.63290        39.39924         0.09376
C         20.86681        41.58558         0.31789
C         19.56761        42.30309         0.09374
C         20.77375        44.47663         0.03258
C         19.61027        43.75004        -0.15616
C         20.79918        45.90937        -0.25547
C         19.63188        46.57137        -0.69631
C         20.85633        48.66336        -1.05623
C         19.67309        47.90036        -1.16397
C         20.83002        50.09431        -1.34939
C         19.66946        50.75826        -1.67207
C         20.91981        52.89575        -2.05766
C         19.60914        52.27636        -1.58069
C         21.02828        54.08329        -2.71115
C         19.07234        55.19639        -2.43649
C         20.64645        57.14845        -2.27648
C         19.35145        56.55656        -2.16390
C         20.71605        58.54192        -2.14704
C         22.69347         4.39222        -4.45618
C         21.51421         5.09471        -4.09250
C         22.62652         7.15824        -3.35373
C         21.44984         6.32265        -3.39751
C         22.94473         7.96125        -2.29390
C         21.83452         8.34834        -1.41270
C         23.13953        10.56274        -1.10317
C         21.92583         9.78079        -0.82719
C         23.07167        11.94080        -1.19454
C         21.80962        12.64631        -0.94597
C         22.88701        14.83660        -1.50128
C         21.69590        14.01617        -1.15906
C         22.94004        16.22998        -0.92625
C         21.68031        17.07275        -1.00766
C         23.01813        19.04991        -0.19831
C         21.78511        18.37641        -0.24551
C         23.10106        20.41364         0.26432
C         21.84638        21.24252         0.29493
C         23.14425        23.14683         1.26811
C         21.95702        22.47666         1.17132
C         23.23054        24.53960         1.70400
C         22.01157        25.11916         2.40851
C         23.25217        27.39710         2.37823
C         21.97319        26.63984         2.47782
C         23.21135        28.87542         2.17425
C         22.00099        29.51635         2.13481
C         23.18437        31.74306         2.44242
C         21.85719        30.98707         2.45191
C         23.17750        33.23427         2.20314
C         21.88255        34.00069         1.92415
C         23.30968        35.98641         1.30652
C         22.11214        35.13668         0.91321
C         23.31587        37.37444         1.08276
C         22.17272        37.94119         0.24580
C         23.45555        40.14213         0.21829
C         22.10621        39.44820         0.26813
C         23.37872        41.68329         0.19150
C         22.08349        42.39941         0.27036
C         23.18056        44.61921         0.78004
C         22.01976        43.77756         0.29673
C         23.24659        46.02056         0.22534
C         22.01969        46.65348        -0.19486
C         23.19409        48.83428        -0.15684
C         22.01082        48.03204        -0.52194
C         23.23613        50.29388        -0.52746
C         22.17214        50.77718        -1.47953
C         23.33498        52.97188        -1.52684
C         22.14590        52.27333        -1.58668
C         23.40814        54.34836        -1.98637
C         22.25705        54.94538        -2.79365
C         23.20989        57.17154        -1.98477
C         21.94659        56.37942        -2.20546
C         23.17963        58.64189        -2.00672
C         21.92795        59.30289        -2.07577
C         23.09704        61.43594        -1.98859
C         21.90631        60.72186        -2.06589
C         24.03273         4.73407        -4.27384
C         25.54213         6.56882        -3.28790
C         24.45461         6.06683        -3.96872
C         25.53727         7.93550        -2.76320
C         24.31772         8.47644        -2.06133
C         25.70437        10.62451        -1.38224
C         24.40605         9.83065        -1.37462
C         25.48527        12.07467        -1.74546
C         24.27519        12.68205        -1.58298
C         25.45060        14.93185        -1.69691
C         24.18444        14.15339        -1.75108
C         25.44585        16.32035        -1.42302
C         24.23998        16.96023        -0.86585
C         25.43925        19.13676        -0.74618
C         24.25083        18.42499        -0.64136
C         25.50876        20.46492        -0.17462
C         24.31171        21.07241         0.34872
C         25.58750        23.26145         0.68381
C         24.43293        22.38672         1.10186
C         25.58753        24.64356         0.97730
C         24.39380        25.25994         1.55584
C         25.66788        27.48325         1.62484
C         24.56343        26.62724         2.21271
C         25.68620        28.88727         1.92687
C         24.47105        29.58807         2.19468
C         25.65157        31.75560         2.28369
C         24.46303        31.01616         2.27273
C         25.64789        33.18166         2.21316
C         24.47781        33.90422         1.98951
C         25.66815        36.08707         1.97410
C         24.48066        35.34014         1.77349
C         25.67230        37.48821         1.75791
C         24.46673        38.13774         1.37710
C         25.70735        40.37814         1.39202
C         24.36422        39.65322         1.37671
C         25.73816        41.74060         1.16229
C         24.57731        42.45853         0.61080
C         25.69713        44.64010         0.82607
C         24.50386        43.91690         0.77674
C         25.70180        46.05577         0.58367
C         24.45701        46.72383         0.26573
C         25.66025        48.87697         0.02757
C         24.47509        48.15362         0.05654
C         25.69948        50.29959        -0.22032
C         24.53844        50.97129        -0.59255
C         25.68054        53.12332        -0.76285
C         24.56138        52.36349        -1.00061
C         25.63774        54.62311        -0.88317
C         24.52044        55.09756        -1.77287
C         25.74597        57.30044        -1.82797
C         24.55056        56.50494        -2.31409
C         25.65588        58.66132        -1.75022
C         24.39083        59.36623        -1.91546
C         24.32912        60.77351        -1.90490
C         26.70438         8.66006        -2.72085
C         27.95158        10.75192        -2.44262
C         26.82705        10.01128        -2.21237
C         28.01496        12.19759        -1.99664
C         26.64861        12.81532        -2.36197
C         27.77740        15.03917        -2.42011
C         26.63229        14.28900        -2.08228
C         27.57338        16.42771        -2.48335
C         26.54969        17.10305        -1.79878
C         27.95242        19.29911        -1.38598
C         26.55270        18.62757        -1.68602
C         27.96206        20.58553        -0.62553
C         26.71137        21.18637        -0.12701
C         27.99671        23.25877         0.24276
C         26.76840        22.56610         0.28145
C         27.96884        24.73341         0.29146
C         26.75017        25.44364         0.73304
C         28.01707        27.64164         0.90108
C         26.77676        26.84001         1.04272
C         28.10426        28.98165         1.54299
C         26.93085        29.61648         1.93373
C         28.18302        31.81735         2.07631
C         26.95867        31.02356         2.50811
C         28.18799        33.18473         2.09327
C         26.93046        33.88053         2.60780
C         28.20706        36.11876         2.15587
C         26.90824        35.39844         2.40700
C         28.16031        37.54523         1.77244
C         26.93334        38.22855         1.76008
C         28.17156        40.34465         1.59919
C         26.93575        39.65826         1.63086
C         28.21699        41.80346         1.70320
C         26.90171        42.56028         1.49800
C         28.14319        44.69226         1.11489
C         26.94664        43.98059         1.09382
C         28.16213        46.08489         0.79453
C         26.93266        46.73708         0.52062
C         28.22351        48.92594         0.11157
C         26.93430        48.13885         0.06215
C         28.14115        50.39901         0.15632
C         26.95538        51.03301        -0.10392
C         28.18002        53.16428        -0.66453
C         26.90665        52.55114        -0.09222
C         28.17034        54.43248        -1.15854
C         26.96689        55.23428        -1.28837
C         26.98124        56.55854        -1.63937
C         29.15285        13.03227        -2.56067
C         30.34469        15.22284        -2.92516
C         29.07389        14.38298        -2.67876
C         30.45938        16.39145        -1.90389
C         29.42906        17.45481        -2.18061
C         30.45431        18.96572        -0.63469
C         29.23627        18.51781        -1.36533
C         30.47577        20.39050        -0.12241
C         29.22935        21.18386        -0.14209
C         30.55283        23.29121         0.07698
C         29.23408        22.54292         0.11287
C         30.48889        24.63460         0.82932
C         29.29545        25.45384         0.35386
C         30.55779        27.46417         1.31952
C         29.30970        26.91379         0.66002
C         30.57151        28.97110         1.26175
C         29.38007        29.64230         1.55308
C         30.66123        31.81008         1.55745
C         29.47850        31.04884         2.08956
C         30.64157        33.22493         1.58160
C         29.42347        33.93875         1.86536
C         30.63600        36.07298         1.59608
C         29.44207        35.34587         1.88196
C         30.63237        37.50764         1.54467
C         29.39910        38.22724         1.60258
C         30.64035        40.36872         1.42750
C         29.40708        39.65070         1.51951
C         30.64882        41.81263         1.35180
C         29.45943        42.52502         1.45654
C         30.62536        44.68765         0.96198
C         29.42222        44.03027         1.59708
C         30.65219        46.16043         0.92741
C         29.41633        46.84102         0.78554
C         30.66999        48.97774         0.60165
C         29.43602        48.23471         0.56996
C         30.65065        50.37127         0.43367
C         29.39927        51.20358         0.40688
C         29.46863        52.36029        -0.62439
C         31.76575        17.12597        -1.74385
C         32.94912        19.07951        -0.85287
C         31.75485        18.35445        -1.08465
C         32.96730        20.42242        -0.36291
C         31.76212        21.08370        -0.04022
C         33.01844        23.24858         0.23547
C         31.76533        22.46730         0.54412
C         32.99351        24.66717         0.27493
C         31.78689        25.39742         0.62404
C         32.95508        27.55103         0.48810
C         31.79900        26.77557         0.79244
C         32.97836        28.95495         0.65547
C         31.80710        29.66686         1.09186
C         33.07087        31.80313         1.02521
C         31.83219        31.09724         1.21537
C         33.07921        33.24643         1.11486
C         31.85545        33.94892         1.33630
C         33.07627        36.09860         1.16725
C         31.85714        35.37278         1.35715
C         33.09077        37.52713         1.26435
C         31.85653        38.22678         1.41059
C         33.11644        40.36478         1.40045
C         31.86487        39.65791         1.39961
C         33.11437        41.80968         1.32504
C         31.91910        42.49600         1.24084
C         33.18057        44.69868         0.96240
C         31.91551        43.93383         0.89908
C         33.13131        46.10183         0.89728
C         31.90280        46.84511         0.83850
C         31.89289        48.25245         0.73225
C         34.19663        21.14511        -0.30182
C         35.41239        23.29446        -0.28915
C         34.22137        22.55561        -0.10033
C         35.40791        24.71838        -0.29908
C         34.15761        25.39494        -0.06377
C         35.35873        27.64458        -0.45148
C         34.08187        26.85691        -0.15202
C         35.40152        29.01565         0.05703
C         34.21488        29.67873         0.44778
C         35.52913        31.77807         0.68056
C         34.24202        31.08080         0.73987
C         35.55548        33.27653         0.77656
C         34.26984        33.98204         0.91421
C         35.54108        36.12366         0.84567
C         34.28659        35.39755         0.93322
C         35.56379        37.53068         1.03929
C         34.32279        38.24356         1.23483
C         35.63849        40.36596         1.64978
C         34.32720        39.65423         1.38997
C         35.57137        41.84827         1.39456
C         34.38457        42.54208         1.26983
C         34.37003        43.96980         1.12647
C         36.60027        25.43548        -0.49040
C         37.89519        27.59486        -0.28629
C         36.65548        26.90793        -0.80480
C         37.92737        28.93855        -0.04280
C         36.67253        29.69645         0.04255
C         37.98372        31.78640         0.03670
C         36.70857        31.06240         0.18748
C         37.99066        33.28271         0.02568
C         36.65896        34.03624         0.05527
C         37.99204        36.10018         0.68543
C         36.75337        35.44096         0.59249
C         37.99444        37.51020         0.85623
C         36.80534        38.22204         0.95988
C         36.81736        39.73049         0.89603
C         39.16379        29.64843         0.26174
C         40.41923        31.79226         0.54511
C         39.21885        31.02049         0.32123
C         40.42329        33.16140         0.59302
C         39.23681        33.97462         0.44215
C         39.22279        35.33166         0.66204
O         11.69878        28.70932        -1.16373
O         22.83648        49.90510         0.81358
O         27.62916        36.01899         3.53020
O         23.34523        14.64663        -2.88371
O         24.27315        42.18245        -0.87155
O         11.33431        36.50551         1.78158
O         34.36155        27.43032        -1.50120
O         23.53284         7.04759        -4.40612
O         19.93623        54.61185        -3.37632
O         23.66252        16.26529         0.32953
O         27.73016        48.34828        -1.16296
O         27.43826        42.33534         2.85130
O         14.36513        41.73778        -2.12757
O         38.12818        32.54778        -1.24312
O         24.57964         8.59902        -0.60968
O         22.57588        55.05764        -4.15643
O         17.64429        22.54654         3.55008
O         20.50322        24.24367         0.44499
O         19.48986        21.17298        -0.34433
O         28.71542        27.68596        -0.40514
O         35.92125        32.50918         1.95494
O         22.64660        27.11762         3.71147
O         22.09859         8.58352        -0.01057
O         28.05489        20.54896        -2.15352
O         19.95336        41.93790         1.44013
O         15.68764        35.19356        -2.24330
O         30.34490        19.18804         0.79637
O         28.50966        17.19728        -3.19247
O         31.08213        44.14066        -0.31607
O         18.04468        45.39354         0.72959
O         19.91507        15.73081        -1.95572
O         28.71317        25.20812        -0.93945
O         23.20573        32.67765         3.58310
O          7.71976        31.08966        -1.27493
O         22.49279        56.55137        -0.86146
O         22.42288        34.54922        -0.37275
H         22.45844        35.29076        -1.02089
O         29.74126        51.81636        -1.92080
H         29.00149        51.22595        -2.17508
O         16.04114        32.58095        -1.76820
H         15.85713        33.48116        -2.17865
O         16.15161        48.12263        -3.81668
H         17.04643        48.47304        -4.05389
O         29.50793        44.30770         3.02966
H         28.77242        43.80170         3.45078
O         16.18956        45.26106        -3.01976
H         16.13174        46.09659        -3.54816
O         26.14775        19.09875        -2.98857
H         26.58745        19.97152        -3.13053
O         24.80406        21.96527         2.46920
H         24.74019        22.75400         3.05031
O         25.07525        26.32308         3.54920
H         24.37083        26.56869         4.19439
O         22.51543        37.51803        -1.12177
H         23.20045        38.15709        -1.44455
O         31.50488        14.40571        -2.81182
H         31.56166        14.11187        -1.87818
O         27.09019        30.88274         3.96816
H         26.99329        31.80219         4.33262
O         15.86255        19.69197         3.60695
H         15.04825        19.19107         3.83009
O         26.97596        33.65089         4.05904
H         27.43954        34.43600         4.44402
O         16.19089        37.57587        -2.33525
H         15.93220        36.73855        -2.83023
O         16.43745        24.42655         0.27033
H         15.69957        24.34999        -0.37141
O         10.94528        20.28037         1.19313
H         11.17676        20.43262         0.25423
O         28.22157        12.25733        -0.56698
H         27.57181        11.65027        -0.13011
O         13.60710        26.72327        -0.83936
H         12.97374        27.28052        -1.35973
O         22.66219        50.30677        -2.78626
H         22.09249        50.69582        -3.48403
O         36.78228        26.94015        -2.26622
H         35.86102        26.90321        -2.61836
O         26.14631        10.61770         0.01570
H         25.98020         9.70490         0.34889
O         30.13565        15.80084        -0.60476
H         30.29973        16.47097         0.09325
O         20.10386        21.78455         3.21362
H         19.34991        21.70836         3.84617
O         26.51255        12.65594        -3.80687
H         25.72347        13.16329        -4.09405
O         21.39808        30.97570         3.83079
H         21.91782        31.66337         4.31437
O         20.92206        28.53117         0.30639
H         20.08058        28.17227        -0.04955
O         22.85062        44.81258         2.22097
H         23.44823        45.50698         2.57253
O          9.65458        38.43844         2.07215
H         10.08554        37.71946         2.59351
O         35.94079        40.17898         3.06935
H         35.21530        40.58686         3.58711
O         12.02184        25.60486         3.15269
H         11.95092        24.76189         3.64898
O         21.49856        34.65470         3.15566
H         21.69729        34.03606         3.89307
O         24.09887        39.69957        -1.00433
H         24.43697        40.51669        -1.45426
O         18.07319        34.79840        -1.86042
H         17.32394        34.85727        -2.52571
O         30.81942        23.56568        -1.31545
H         30.06363        24.09624        -1.66699
O         24.70897        56.48267        -3.75256
H         23.97078        55.91541        -4.13992
O         22.05694        24.60986         3.76866
H         22.44142        25.32244         4.33094
O         19.62259        52.56390        -0.13813
H         18.87161        52.09110         0.27831
O         18.98136        31.46326         3.15970
H         19.61529        31.08420         3.81611
O         23.68057        40.03269         2.59902
H         24.21474        39.73140         3.36350
O         16.92622        18.31812        -0.55712
H         16.07413        17.97345        -0.89918
O         18.57360        18.32013         2.71767
H         17.77988        18.51981         3.26742
O         21.83364        21.81241        -1.05123
H         20.90319        22.08126        -1.24041
O         26.84170        52.97293         1.31403
H         27.71294        52.72259         1.71960
O         14.37008        43.84334         0.89720
H         13.41028        43.74354         1.07523
O         18.66260        13.50162        -1.94706
H         18.64325        14.30895        -2.50820
O         30.22229        24.43413         2.22966
H         30.85365        23.75736         2.57263
O         31.68229        22.27365         2.00240
H         32.32731        21.57689         2.24898
O         21.59649        17.51281        -2.38666
H         21.00876        16.87855        -2.86316
O         21.20274        31.20701         0.18566
H         20.63473        31.65817        -0.47433
O         36.75767        40.09372        -0.48836
H         36.55757        41.05185        -0.54559
O         17.99326        27.66533         3.89248
H         17.52349        26.87362         4.25111
O         36.18599        34.18240        -1.31130
H         36.75619        33.60397        -1.87409
O         29.30397        51.85531         1.72535
H         29.38766        51.15955         2.41140
O         29.77533        30.86440         3.52919
H         28.90730        30.65743         3.96715
O         25.34884        55.13086         0.46151
H         25.84876        54.55756         1.09284
O         30.43234        27.12882         2.73243
H         31.15797        27.57180         3.21955
O         20.16525        16.27852         1.64435
H         19.69618        16.72945         2.38877
O         17.08595        16.31327         2.53425
H         17.16609        15.34194         2.64223
O         18.74324        41.55714        -1.97756
H         18.03992        41.06464        -2.45337
O         15.63049        41.48770         1.29985
H         15.42718        42.42503         1.54719
O         16.58271        25.16462         3.87358
H         16.80880        24.25519         4.19029
O         18.68830        49.05180        -3.12480
O         19.79498        12.88276         1.43390
H         20.04364        12.04759         1.88209
H          5.09204        31.17390         0.68041
H          5.19345        33.62262         0.50799
H          7.52720        26.84189         0.97354
H          6.39084        28.97802         0.95375
H          6.43422        35.69566         0.26936
H          7.65463        37.76982         0.31916
H          9.89441        22.50359         1.54673
H          8.68026        24.65626         1.14950
H          8.88755        39.91203        -0.17043
H         10.01521        41.90445        -0.90416
H         12.31971        18.25341         1.50788
H         11.63296        20.71497         3.07496
H         11.23912        44.04627        -1.51467
H         12.48328        46.16919        -1.83535
H         14.69746        13.99835         0.41456
H         13.50198        16.21351         0.68257
H         13.75665        48.31697        -2.06173
H         15.02002        50.44686        -2.29983
H         17.27919         9.81369        -0.18741
H         16.01686        11.86796         0.25292
H         16.14887        52.60719        -2.15431
H         17.20508        54.74617        -1.43679
H         19.37561         6.23514        -2.69756
H         18.39118         7.93539        -1.15275
H         18.54673        57.18835        -1.75298
H         19.76784        59.10385        -2.12939
H         22.51388         3.35532        -4.78476
H         20.57699         4.52077        -4.16907
H         23.07262        62.53473        -1.98123
H         20.94367        61.24994        -2.12312
H         24.78581         3.93463        -4.34135
H         26.41908         5.93572        -3.08384
H         26.54336        59.26059        -1.49305
H         25.25770        61.35636        -1.82091
H         27.59739         8.23598        -3.20637
H         28.79169        10.30800        -3.00108
H         29.11653        54.87737        -1.50919
H         27.94083        57.08474        -1.77463
H         30.13373        12.54259        -2.67328
H         30.32908        15.64404        -3.96308
H         31.60877        50.91308         0.42732
H         30.32698        53.02942        -0.36424
H         32.71402        16.68276        -2.08284
H         33.90453        18.62036        -1.14749
H         34.07666        46.66493         0.90845
H         32.84494        48.80131         0.69507
H         35.13108        20.62921        -0.56631
H         36.35040        22.76180        -0.50389
H         36.51972        42.40898         1.41421
H         35.33014        44.50667         1.15886
H         37.52341        24.86335        -0.67195
H         38.83210        27.01710        -0.29114
H         38.95372        38.04891         0.85055
H         37.77508        40.12342         1.34682
H         40.08092        29.05472         0.39596
H         41.36287        31.24664         0.69545
H         41.37009        33.68470         0.79601
H         40.16071        35.85010         0.91406
