         344
 CSIRO Nanostructure Databank - Neutral Graphene Oxide Data Set
C          1.25221         3.36825         0.40812
C          0.04130         4.04209         0.54033
C          1.20113         6.19488         0.56321
C          0.00652         5.43578         0.61075
C          1.20089         7.65755         0.62804
C         -0.03693         8.37834         0.87855
C          1.23061        10.47988         1.23979
C         -0.05590         9.69960         1.15439
C          1.11001        11.96332         0.98880
C         -0.04979        12.66767         0.89062
C          1.08704        14.85308         0.87629
C         -0.05201        14.10501         0.78619
C          1.05944        16.33758         0.77317
C         -0.07704        17.02870         0.15861
C          1.12686        19.16625         0.18141
C         -0.06099        18.38910         0.01674
C          1.04200        20.67341         0.09375
C          0.09955        21.20623        -0.95603
C          1.30021        23.32986        -0.95858
C          0.21311        22.48560        -1.38667
C          1.30340        24.75672        -1.44849
C          0.09472        25.51879        -0.93469
C          1.27816        27.66350        -1.07633
C          0.11302        26.87839        -0.81300
C          1.27829        29.06859        -1.02721
C          3.72106         3.41564         0.18975
C          2.46326         4.09670         0.33492
C          3.73807         6.25464         0.49805
C          2.42447         5.51291         0.41864
C          3.63203         7.73985         0.21713
C          2.37953         8.38205         0.43399
C          3.61425        10.60515         0.39688
C          2.28156         9.88798         0.28466
C          3.64064        11.98524         0.67815
C          2.40006        12.67815         1.09899
C          3.65122        14.90938         0.86213
C          2.38767        14.19405         1.13424
C          3.69779        16.40637         1.13747
C          2.36197        17.12147         0.88352
C          3.58144        19.24386         0.31245
C          2.35606        18.53002         0.41679
C          3.59033        20.66041         0.23966
C          2.38041        21.37131         0.03892
C          3.59181        23.56459        -0.00178
C          2.38241        22.75998        -0.28891
C          3.67496        24.94778        -0.54487
C          2.56434        25.52319        -1.13724
C          3.76565        27.73905        -1.09573
C          2.54806        26.97500        -1.52564
C          3.73105        29.16455        -1.12086
C          2.44829        29.81261        -1.17014
C          6.13755         3.46602        -0.22367
C          4.89834         4.10923        -0.08664
C          6.09830         6.34321        -0.33260
C          4.78801         5.58934        -0.38348
C          6.04169         7.73284        -0.28805
C          4.80469         8.45639        -0.06378
C          6.00584        10.66316        -0.05425
C          4.80619         9.91951         0.04458
C          6.03916        12.05496         0.22977
C          4.83701        12.74142         0.56393
C          6.08186        14.91936         0.50145
C          4.83115        14.19669         0.68491
C          6.05028        16.37045         0.35070
C          4.88664        17.06657         0.48422
C          6.11438        19.25111         0.33975
C          4.84932        18.49503        -0.00879
C          6.06250        20.67969         0.45915
C          4.86088        21.35850         0.33957
C          6.14710        23.53752         0.18242
C          4.86110        22.83788         0.36601
C          6.11219        25.04522         0.23119
C          4.90202        25.66672        -0.42276
C          6.16482        27.79739        -0.59598
C          4.94342        27.06021        -0.72301
C          6.17357        29.21069        -0.80613
C          4.93470        29.88459        -0.99279
C          8.56422         3.48235        -0.53292
C          7.34840         4.18001        -0.44066
C          8.56188         6.32344        -0.60817
C          7.33774         5.63218        -0.49704
C          8.57016         7.78009        -0.62486
C          7.26289         8.48924        -0.63279
C          8.51466        10.74125        -0.51443
C          7.21875         9.99959        -0.58444
C          8.52729        12.11727         0.03580
C          7.28575        12.79011         0.21471
C          8.57584        14.93604         0.09082
C          7.27031        14.20938         0.34184
C          8.51119        16.38815         0.56758
C          7.31755        17.11241        -0.06895
C          8.58376        19.25906         0.46307
C          7.31680        18.56943         0.34848
C          8.60342        20.67028         0.53017
C          7.32963        21.43000         0.81398
C          8.59493        23.51077         0.09003
C          7.34262        22.84945         0.27370
C          8.60636        24.88609        -0.52496
C          7.37801        25.69444        -0.23833
C          8.64073        27.78790        -0.53531
C          7.39792        27.07781        -0.43827
C          8.64311        29.21343        -0.67682
C          7.41043        29.90235        -0.80587
C         11.03508         3.47181        -0.72291
C          9.80692         4.15984        -0.62787
C         11.03433         6.28372        -0.68380
C          9.80183         5.60124        -0.64568
C         11.06227         7.76576        -0.93661
C          9.75273         8.47463        -0.63410
C         10.97461        10.58513         0.20247
C          9.78851         9.95923        -0.52969
C         11.00198        12.09538         0.10166
C          9.76228        12.76852         0.21918
C         11.06651        14.93760         0.44861
C          9.76785        14.19263         0.70098
C         11.02741        16.36824         0.46246
C          9.84036        17.09276         0.40282
C         11.04539        19.25498         0.37450
C          9.83190        18.54181         0.40149
C         11.06549        20.67495         0.41044
C          9.81732        21.38539         0.45140
C         11.06003        23.52295         0.17919
C          9.81551        22.82257         0.27076
C         11.06681        24.95373         0.00756
C          9.86688        25.65701        -0.23884
C         11.09484        27.79335        -0.31036
C          9.86832        27.07298        -0.36290
C         11.10435        29.22425        -0.48611
C          9.88032        29.90629        -0.67158
C         13.50996         3.48071        -0.88173
C         12.27123         4.16029        -0.75490
C         13.52566         6.30827        -0.57694
C         12.26521         5.60045        -0.68872
C         13.55430         7.74500        -0.36645
C         12.22216         8.40538        -0.13463
C         13.52109        10.59243         0.04389
C         12.24430         9.92115        -0.35832
C         13.46972        12.05560        -0.12068
C         12.21702        12.79234         0.15426
C         13.55482        14.92250         0.18559
C         12.26421        14.22446         0.27659
C         13.57581        16.35843         0.35297
C         12.31683        17.11225         0.72282
C         13.58217        19.23654         0.51710
C         12.32574        18.50202         0.09483
C         13.56206        20.68472         0.60886
C         12.30126        21.39164         0.46041
C         13.50749        23.55375         0.46057
C         12.29570        22.82472         0.37817
C         13.52603        24.96578         0.28222
C         12.29828        25.67430         0.07258
C         13.54965        27.80323        -0.06801
C         12.31524        27.08950        -0.10496
C         13.56593        29.22729        -0.28070
C         12.34194        29.90998        -0.47854
C         15.98606         3.52692        -1.00765
C         14.73560         4.17579        -0.83000
C         15.98429         6.26335        -0.13497
C         14.71969         5.59707        -0.59296
C         16.00146         7.76586        -0.22141
C         14.73155         8.45333        -0.15773
C         15.97528        10.64586         0.09337
C         14.71244         9.91203         0.02045
C         16.00871        12.00943        -0.04232
C         14.76327        12.78591        -0.25531
C         16.02328        14.99106        -0.32799
C         14.74831        14.24492        -0.02374
C         16.03524        16.40086         0.20020
C         14.77417        17.06912         0.39297
C         16.00388        19.17280         1.05007
C         14.74555        18.50911         0.65566
C         16.02323        20.69417         1.04939
C         14.74647        21.38868         0.78554
C         16.03316        23.50786         0.50427
C         14.74815        22.87586         0.96975
C         16.06120        24.96761         0.13232
C         14.74917        25.68744         0.28110
C         16.01663        27.81094         0.17186
C         14.76646        27.09620         0.13231
C         16.02948        29.22175        -0.08812
C         14.80554        29.90325        -0.31062
C         18.45602         3.58686        -1.27242
C         17.21528         4.24001        -0.97766
C         18.45433         6.33781        -0.57147
C         17.23899         5.61791        -0.63983
C         18.46762         7.73693        -0.21489
C         17.20883         8.43136        -0.08087
C         18.50487        10.57541         0.46173
C         17.17990         9.82156         0.51497
C         18.52281        12.07291         0.26154
C         17.29992        12.75301        -0.30442
C         18.49747        14.91201         0.04670
C         17.28217        14.22963        -0.00320
C         18.50222        16.35729         0.16250
C         17.25638        17.04336         0.37632
C         18.57561        19.23853         0.65009
C         17.29597        18.43519         0.87591
C         18.48588        20.71460         0.52096
C         17.29670        21.39707         0.74706
C         18.48371        23.57197         0.36217
C         17.23098        22.83065         0.52399
C         18.50227        24.97282         0.55638
C         17.20327        25.67836         0.86181
C         18.43558        27.83911         0.54520
C         17.22922        27.14837         0.51129
C         18.47639        29.22757         0.17263
C         17.27120        29.89925        -0.11835
C         19.64525         4.27168        -1.19876
C         20.90153         6.35670        -0.69390
C         19.67871         5.65180        -0.83836
C         20.91168         7.68491        -0.32116
C         19.70914         8.41752        -0.09072
C         20.93188        10.58685         0.08055
C         19.75936         9.84399         0.19234
C         20.96502        12.00150         0.05250
C         19.80492        12.76895         0.02397
C         20.94715        14.97012        -0.15853
C         19.76730        14.20758        -0.04034
C         20.92553        16.35758        -0.14353
C         19.71836        17.07743         0.04108
C         20.76031        19.28089        -0.47797
C         19.72121        18.53193         0.04144
C         20.75298        20.69664        -0.41914
C         19.67006        21.41742         0.06877
C         20.89253        23.61754         0.06774
C         19.69350        22.87563         0.14305
C         20.90259        24.99010         0.28928
C         19.70947        25.68345         0.57019
C         20.93886        27.89878         0.80901
C         19.67323        27.13220         1.05824
C         20.93126        29.19999         0.37884
C         19.73071        29.88739         0.09268
O         17.04180        25.52180         2.33705
O          4.01013        23.45917         1.41874
O          2.47921        13.39854         2.38590
O         14.01030        12.41137        -1.49372
O         18.50387        11.51567         1.61164
O         18.22754        18.67190         1.96413
O          1.47745        16.97105         2.04761
O          7.02337         9.30536        -1.85207
O          9.34731        10.66248        -1.73307
O         15.96258        19.91830         2.30577
O         15.64724        25.75660         2.66366
H         15.28116        24.82423         2.75161
O          4.20787         6.14030         1.87493
H          3.54365         6.56774         2.45558
O         12.39175        18.31674        -1.35109
H         12.25492        19.18977        -1.77442
O          1.16374        24.68095        -2.90329
H          1.51800        25.52894        -3.27073
O          7.38443        17.15315        -1.51945
H          7.80338        16.30917        -1.82765
O          7.30831        21.58711         2.27445
H          6.52292        22.12871         2.50436
O          3.95114        16.51464         2.57012
H          3.08882        16.35114         3.01872
O         14.73592        23.10980         2.45388
H         15.24760        22.37857         2.86737
O          1.79267        10.15408        -1.06311
H          2.39735         9.71164        -1.69553
O         12.20202        10.16009        -1.79647
H         12.70712        10.98022        -2.00264
O         19.53101        27.04339         2.51614
H         18.66557        26.60807         2.70823
O          4.83241        18.39385        -1.48188
H          5.70059        17.99510        -1.75009
O          9.59897        14.13788         2.15658
H         10.14849        13.39812         2.49372
O         15.99076         6.01411         1.33985
H         16.64077         6.63797         1.73303
O         12.36147        17.31836         2.16507
H         12.32305        16.44174         2.60073
O         17.47282        12.66149        -1.76165
H         16.89127        13.35716        -2.15773
O          1.72878        10.34129         2.60192
H          1.81035        11.23220         3.00534
O          8.80616        14.94137        -1.34794
H          8.85488        14.00743        -1.64967
O         11.95022         8.11935         1.27482
H         12.17440         7.17816         1.44008
O          8.59324        24.65473        -2.00633
H          9.46243        24.26597        -2.24353
O         10.78405        10.39007         1.62508
H         11.07916         9.47978         1.86891
O          8.20981        16.41849         1.98068
H          8.78454        15.76087         2.43801
O          2.53442        27.03832        -3.02108
H          2.43247        27.98534        -3.26011
O         16.93220         9.53614         1.93427
H         17.28147        10.31249         2.43338
O          5.98589        25.35711         1.67399
H          5.17805        24.87174         1.97869
O         16.40615        25.06326        -1.28614
H         15.68731        24.64094        -1.80101
O         16.02372        15.09227        -1.83072
H         15.12057        15.37002        -2.10011
O          0.44174        21.07796         1.39169
H          1.03075        20.74096         2.10077
O         11.27716         7.85516        -2.36337
H         11.26667         8.80837        -2.61513
O          4.31257         5.70411        -1.75604
H          5.00233         5.33531        -2.34647
H          1.27447         2.27076         0.34859
H         -0.89861         3.47452         0.58784
H         -0.96784         5.93210         0.70644
H         -0.98321         7.82007         0.89350
H         -1.00272        10.18544         1.43240
H         -1.01960        12.15263         0.85410
H         -1.02173        14.59702         0.62728
H         -0.96634        16.45721        -0.14039
H         -0.97571        18.89193        -0.32677
H         -0.73967        20.58502        -1.29867
H         -0.50758        22.89843        -2.10677
H         -0.83392        24.95988        -0.74913
H         -0.80286        27.40823        -0.50518
H          0.32558        29.59290        -0.85603
H          3.74290         2.31874         0.28272
H          2.40623        30.91060        -1.15150
H          6.18949         2.37314        -0.09827
H          4.92110        30.98305        -1.05404
H          8.55361         2.38264        -0.49809
H          7.41651        30.99565        -0.92913
H         11.03223         2.37234        -0.76459
H          9.88583        30.99946        -0.79240
H         13.51344         2.38715        -1.00337
H         12.35349        30.99872        -0.63510
H         16.00273         2.44754        -1.22096
H         14.82310        30.98723        -0.49720
H         18.44498         2.52112        -1.54331
H         17.29604        30.97096        -0.36443
H         20.59442         3.75666        -1.40725
H         21.84982         5.82895        -0.87081
H         21.88193         8.18562        -0.20585
H         21.89129        10.07040        -0.06068
H         21.94844        12.48297        -0.04330
H         21.91486        14.46075        -0.26483
H         21.87469        16.90296        -0.23360
H         21.62551        18.78558        -0.93949
H         21.62960        21.23047        -0.81075
H         21.84734        23.10319        -0.10855
H         21.86170        25.52571         0.27112
H         21.89199        27.42905         1.09031
H         21.88469        29.73766         0.26844
H         19.76463        30.94373        -0.20885
