         661
 CSIRO Nanostructure Databank - Neutral Graphene Oxide Data Set
C          5.91604        31.75452        -0.55991
C          5.77450        33.04288        -0.93798
C          8.32221        27.43941        -0.54129
C          8.30284        28.85279        -0.80958
C          7.29257        29.64190        -0.33608
C          8.12062        31.59734        -1.69627
C          7.29689        31.13844        -0.47799
C          8.16739        33.11559        -1.70246
C          6.94106        33.84509        -1.28834
C          8.19614        35.97121        -1.17201
C          6.95576        35.20874        -1.19846
C          8.18031        37.31629        -0.88624
C         10.86059        23.31217         0.18459
C         10.78784        24.59125        -0.33688
C          9.56107        25.32148        -0.30477
C         10.79320        27.45473        -0.70551
C          9.49962        26.68895        -0.60430
C         10.70444        28.68011        -1.60550
C          9.36384        29.40121        -1.76049
C         10.69015        31.60657        -1.71101
C          9.47733        30.91796        -1.70555
C         10.73320        33.05700        -1.55313
C          9.47622        33.83803        -1.61891
C         10.66477        35.91794        -0.98998
C          9.46320        35.25915        -1.22677
C         10.69655        37.32097        -0.76039
C          9.41383        38.03841        -0.43474
C         10.67470        40.19294        -0.61129
C          9.46523        39.50708        -0.71551
C         10.70960        41.62233        -0.52877
C         13.62898        19.84653         2.28161
C         13.46955        20.78777         1.09720
C         12.27210        21.38276         0.92521
C         13.21736        23.01266        -0.82120
C         12.02833        22.46245        -0.05012
C         13.23624        24.49210        -1.00277
C         12.01629        25.23873        -0.81302
C         13.24880        27.33461        -1.16021
C         12.01969        26.61965        -0.98594
C         13.21994        28.73564        -1.28786
C         11.99240        29.43818        -1.70382
C         13.17306        31.61672        -1.58680
C         11.96471        30.91343        -1.71215
C         13.18250        33.04832        -1.45088
C         11.92212        33.72874        -1.35394
C         13.18943        35.89938        -1.03703
C         11.92650        35.12221        -0.77619
C         13.17810        37.30222        -0.85912
C         11.91884        38.02239        -0.70523
C         13.14862        40.15065        -0.41381
C         11.92114        39.44408        -0.56945
C         13.12316        41.55007        -0.23826
C         11.90702        42.31544        -0.29015
C         13.11998        44.45572         0.22774
C         11.94020        43.73176        -0.03751
C         13.14806        45.86602         0.41827
C         15.95445        15.59780         3.60325
C         15.94041        16.81324         2.94546
C         14.84320        17.75148         2.86698
C         16.04201        19.58270         1.62616
C         14.87351        18.99388         2.26488
C         15.92080        20.54952         0.57752
C         14.55121        20.89481         0.04652
C         15.72718        23.11928        -0.72123
C         14.54472        22.19877        -0.88473
C         15.68159        24.37953        -1.55901
C         14.43841        25.17688        -1.21592
C         15.73097        27.28073        -1.39686
C         14.49118        26.60119        -1.21780
C         15.79152        28.73429        -1.24769
C         14.43915        29.50338        -1.17141
C         15.65715        31.60218        -1.58992
C         14.43555        30.92713        -1.50006
C         15.65661        33.05619        -1.49906
C         14.40223        33.75304        -1.37633
C         15.64018        35.89034        -1.15636
C         14.40244        35.18951        -1.19991
C         15.64251        37.30270        -0.93724
C         14.40519        38.01100        -0.79408
C         15.62867        40.07168        -0.30040
C         14.40892        39.41729        -0.48270
C         15.63034        41.46360         0.17638
C         14.34640        42.24745         0.15574
C         15.58349        44.38738         0.26560
C         14.38706        43.73160         0.19387
C         15.61138        45.80218         0.68499
C         14.35369        46.58068         0.65053
C         15.68581        48.69033         0.92159
C         14.43893        47.96930         0.82938
C         15.71668        50.09009         1.14599
C         18.33815        11.26624         4.16136
C         18.46327        12.66253         3.87253
C         17.25468        13.46641         3.99641
C         18.47418        15.53677         3.61941
C         17.18276        14.81186         3.69559
C         18.44755        16.99831         3.14589
C         17.22914        17.05231         2.21817
C         18.50584        19.47497         1.34337
C         17.33499        19.45610         2.21833
C         18.32003        20.43647         0.12882
C         17.05862        21.16294         0.05184
C         18.15138        22.95880        -1.37873
C         17.06608        22.62117        -0.30229
C         18.19009        24.45996        -1.54903
C         16.98405        25.16124        -1.53325
C         18.15665        27.34158        -1.86032
C         16.95704        26.59401        -1.61106
C         18.13720        28.72818        -2.05790
C         16.94962        29.48767        -1.75800
C         18.04530        31.73975        -2.31366
C         16.88443        30.87840        -1.82681
C         18.15026        32.91973        -1.32614
C         16.86734        33.74047        -1.38079
C         18.09465        35.86879        -1.07401
C         16.88019        35.16493        -1.21130
C         18.11312        37.28490        -0.96622
C         16.87928        38.00035        -0.85836
C         18.09119        40.11641        -0.55216
C         16.88404        39.41130        -0.56129
C         18.18107        41.52558        -0.17378
C         16.91700        42.23213         0.19056
C         18.15458        44.38492         0.08500
C         16.84925        43.69407        -0.18980
C         18.14012        45.85471         0.15977
C         16.92523        46.54351         0.68358
C         18.17090        48.71128         0.77715
C         16.92848        48.01302         0.74789
C         18.17807        50.11263         1.04564
C         16.93604        50.80922         1.24527
C         18.18862        52.89681         1.74390
C         16.97045        52.19403         1.55402
C         18.19615        54.27138         2.06826
C         20.87730         6.98717         3.69355
C         20.82440         8.38036         3.51588
C         19.64695         9.05017         4.03446
C         20.94718        11.28275         2.80175
C         19.21569        10.30548         3.60969
C         20.94498        12.65834         3.14505
C         19.70681        13.29589         3.54278
C         20.93832        15.40922         3.07941
C         19.75440        14.76330         3.69205
C         20.73917        16.43435         2.22347
C         19.72106        17.49768         2.40353
C         21.00611        19.31887         0.78594
C         19.84494        18.84241         1.66504
C         20.84700        20.38932        -0.11514
C         19.51762        20.86222        -0.71327
C         20.64006        23.02939        -1.37744
C         19.49236        22.34807        -1.05462
C         20.65221        24.46276        -1.61882
C         19.43884        25.14617        -1.66893
C         20.64208        27.37123        -1.52211
C         19.45076        26.59119        -2.10589
C         20.64683        28.70286        -2.25262
C         19.37140        29.42645        -2.51387
C         20.60596        31.80370        -2.46521
C         19.36577        30.99155        -2.57667
C         20.56183        33.14053        -1.93783
C         19.39414        33.73848        -1.50663
C         20.56011        35.91998        -1.55831
C         19.39721        35.13279        -0.92371
C         20.59367        37.38252        -1.22480
C         19.35289        38.00805        -1.01321
C         20.60243        40.23776        -1.12447
C         19.30858        39.47056        -1.04485
C         20.63539        41.66734        -0.72717
C         19.39012        42.32000        -0.45790
C         20.64831        44.40267        -0.01682
C         19.34027        43.71676        -0.20504
C         20.69783        45.83510         0.36426
C         19.43089        46.61562         0.23126
C         20.65393        48.72318         0.61650
C         19.41824        48.03235         0.61290
C         20.64921        50.12653         0.89412
C         19.41715        50.80639         1.14417
C         20.67667        52.84754         1.62076
C         19.43552        52.18119         1.52608
C         20.72956        54.19589         2.21175
C         19.40819        54.96766         2.46254
C         20.77425        57.04069         2.87454
C         19.55275        56.42000         2.60324
C         20.86703        58.42497         3.13118
C         23.14936         4.05584         3.16940
C         22.00291         4.79439         3.46490
C         23.20637         6.87204         2.93989
C         22.01205         6.20904         3.35211
C         23.21733         8.29425         2.81895
C         22.00997         9.04484         3.00156
C         23.35146        11.14121         2.71594
C         22.09948        10.46934         2.84308
C         23.38989        12.57552         2.72413
C         22.21641        13.30987         3.04637
C         23.54441        15.53665         2.85062
C         22.28040        14.78139         3.38206
C         23.52968        17.02417         2.56111
C         22.57643        17.60227         1.73925
C         23.52167        19.41576         0.40948
C         22.33452        18.86249         1.08052
C         23.38468        20.52320        -0.51814
C         22.01848        20.94814        -0.83396
C         23.11994        22.99216        -2.12884
C         21.89855        22.27331        -1.56105
C         23.14384        24.47692        -1.88811
C         21.92752        25.17375        -1.75499
C         23.16700        27.27127        -1.91292
C         21.94982        26.60137        -1.74751
C         23.11377        28.78173        -1.94798
C         21.84696        29.15395        -2.67598
C         23.10873        31.73456        -2.31069
C         21.89146        31.30410        -2.83638
C         23.14433        33.14825        -1.93270
C         21.84917        33.89220        -1.86464
C         23.03268        35.97551        -0.80446
C         21.82730        35.21004        -1.23931
C         23.06763        37.29829        -1.64736
C         21.82045        38.06931        -1.27172
C         23.07010        40.17380        -0.93141
C         21.87812        39.48896        -1.07739
C         23.10327        41.65707        -1.21441
C         21.84982        42.33052        -0.72314
C         23.15434        44.52474        -0.49739
C         21.83353        43.82937        -0.75295
C         23.16018        45.88925        -0.33173
C         22.03125        46.57274         0.42072
C         23.09336        48.77334         0.28483
C         21.89111        48.06849         0.28753
C         23.11333        50.12095         0.73501
C         21.89196        50.81347         0.99137
C         23.16456        52.89486         1.50265
C         21.89949        52.19252         1.35330
C         23.18980        54.24545         1.80062
C         21.92838        55.05927         1.89545
C         23.31791        57.02963         2.64252
C         22.05619        56.21898         2.89329
C         23.34566        58.39888         2.99317
C         22.11403        59.09923         3.26462
C         23.41651        61.13226         3.64834
C         22.18250        60.47053         3.58718
C         24.32879         4.69202         2.78650
C         25.59061         6.77400         2.34541
C         24.39017         6.10829         2.68052
C         25.65509         8.18610         2.30458
C         24.45553         8.95269         2.53719
C         25.76938        11.04590         2.28616
C         24.53587        10.37753         2.52548
C         25.79197        12.45953         2.19318
C         24.63512        13.22193         2.41024
C         25.86031        15.28352         1.57022
C         24.71944        14.71246         2.36751
C         25.80201        16.30920         0.68499
C         24.55130        16.96004         0.18532
C         25.75262        18.94298        -0.80509
C         24.67747        18.47249         0.08690
C         25.72430        20.24348        -1.25736
C         24.49334        21.01539        -1.21198
C         25.61554        23.00095        -2.11469
C         24.43659        22.32034        -1.80996
C         25.62882        24.42850        -2.19379
C         24.38960        25.15120        -2.02537
C         25.65420        27.27382        -2.12939
C         24.39906        26.57474        -2.04216
C         25.64814        28.72717        -2.46968
C         24.35539        29.48119        -2.51434
C         25.63074        31.65084        -1.91167
C         24.42558        31.04672        -2.64991
C         25.61651        33.01258        -1.45244
C         24.34136        33.70976        -1.26230
C         25.59374        35.89904        -0.91549
C         24.31911        35.16609        -0.86649
C         25.60794        37.29492        -1.05726
C         24.40193        38.11254        -1.50778
C         25.59230        40.19320        -0.79455
C         24.31308        39.38549        -0.62856
C         25.59547        41.60849        -0.75247
C         24.37563        42.37252        -0.80075
C         25.65248        44.48278        -0.50378
C         24.38874        43.76355        -0.65245
C         25.66061        45.88733        -0.43157
C         24.39587        46.66365        -0.72612
C         25.55806        48.60799         0.56339
C         24.38122        48.23043        -0.33497
C         25.54914        50.00383         1.06153
C         24.37026        50.73318         1.11117
C         25.59154        52.72847         1.89038
C         24.39577        52.12575         1.50508
C         25.73710        54.17664         1.76947
C         24.44588        54.99050         1.76563
C         25.75600        57.05625         2.29572
C         24.49830        56.38714         2.24621
C         25.78935        58.38465         2.69787
C         24.59434        59.09079         3.01657
C         24.60538        60.46876         3.36639
C         26.88031         8.85264         2.06942
C         28.22776        10.90591         1.98810
C         26.99024        10.27112         2.09428
C         28.35343        12.39321         2.19450
C         27.07196        13.07458         1.66564
C         28.45292        15.21932         1.41326
C         27.16097        14.57952         1.80250
C         28.31589        16.50499         0.67104
C         27.03390        16.83997         0.02755
C         28.26307        18.88073        -0.99186
C         26.99890        18.13450        -0.79247
C         28.23257        20.10750        -1.79948
C         26.88363        20.79126        -1.99777
C         28.18016        22.99596        -2.43803
C         26.86368        22.24370        -2.34594
C         28.13738        24.45836        -2.25844
C         26.87837        25.13094        -2.20160
C         28.11822        27.27580        -1.73864
C         26.84818        26.56791        -2.11736
C         28.14779        28.75771        -1.98914
C         26.94740        29.54219        -2.47466
C         27.97393        31.52011        -1.16696
C         26.78768        30.89782        -1.78331
C         27.98881        32.96691        -0.93176
C         26.79788        33.69066        -1.00626
C         28.01793        35.83709        -0.63206
C         26.80495        35.14412        -0.79000
C         28.04300        37.27174        -0.68686
C         26.81999        38.00909        -0.88351
C         28.04505        40.15749        -0.73412
C         26.80826        39.45675        -0.82619
C         28.08344        41.57542        -0.69715
C         26.85202        42.32669        -0.69533
C         28.19012        44.46385        -0.70085
C         26.87050        43.72930        -0.57714
C         28.17410        45.84451        -0.10090
C         26.95744        46.67527        -0.44853
C         28.11492        48.52702         0.90056
C         26.85026        47.86907         0.48481
C         28.09350        50.01522         1.14149
C         26.77500        50.52004         1.68699
C         28.04983        52.62464         2.72396
C         26.76688        51.93189         2.25004
C         28.11234        54.10408         2.39260
C         27.01535        54.83859         2.11406
C         27.04484        56.34517         1.88892
C         29.55148        12.99837         1.48408
C         30.80894        14.79040         0.38896
C         29.63634        14.31718         1.13125
C         31.19768        16.10983         0.31699
C         29.39709        17.30569         0.45349
C         30.73869        18.91956        -0.96121
C         29.46513        18.39552        -0.49472
C         30.71707        20.21493        -1.59367
C         29.47893        20.90255        -1.87659
C         30.66670        23.02577        -2.31046
C         29.45632        22.27019        -2.18858
C         30.65194        24.43677        -2.37392
C         29.38483        25.17721        -2.27574
C         30.59107        27.37158        -2.28713
C         29.37186        26.56778        -2.17448
C         30.59731        28.75369        -1.78126
C         29.33453        29.41630        -1.71815
C         30.57205        31.56371        -1.07874
C         29.30457        30.80482        -1.20874
C         30.52407        32.88452        -0.66351
C         29.23621        33.57717        -0.46147
C         30.57590        35.79476        -0.41176
C         29.26464        35.10016        -0.33597
C         30.55303        37.27824        -0.12755
C         29.26937        37.96407        -0.58739
C         30.49601        40.04848        -0.67689
C         29.26348        39.38106        -0.66458
C         30.53562        41.44372        -0.22574
C         29.33125        42.26427        -0.47589
C         30.53978        44.29897         0.24622
C         29.38150        43.64078        -0.28209
C         30.50812        45.63263         0.63413
C         29.29343        46.41471         0.46182
C         30.52083        48.47316         1.33952
C         29.28934        47.82399         0.89360
C         30.50826        49.75942         1.80530
C         29.30093        50.56480         1.86572
C         29.29485        51.81988         2.39588
C         32.09508        16.79166        -0.57372
C         33.13392        18.67630        -1.74136
C         31.94272        18.12224        -0.97671
C         33.16323        20.18274        -1.80853
C         31.92930        20.87119        -1.92636
C         33.29761        23.03216        -2.42650
C         31.93042        22.26293        -2.39503
C         33.14859        24.50821        -2.35558
C         31.89649        25.14695        -2.35300
C         33.11536        27.37490        -1.91955
C         31.91733        26.62812        -2.36416
C         33.06794        28.74274        -1.68728
C         31.81437        29.45723        -1.59276
C         33.05023        31.53624        -0.95893
C         31.81107        30.84828        -1.23930
C         33.03084        32.90016        -0.54317
C         31.75624        33.59615        -0.16338
C         33.05161        35.78833        -0.38265
C         31.77137        35.10660        -0.41880
C         33.12586        37.26756        -0.60605
C         31.81099        37.97029        -0.61210
C         33.52772        40.38702        -0.33215
C         31.68419        39.29500        -0.92663
C         33.10588        41.41369         0.44007
C         31.76621        42.07043         0.32930
C         32.46067        43.93569         1.81751
C         31.86022        43.57422         0.44239
C         32.63819        45.44005         1.83965
C         31.68710        46.22803         1.27701
C         31.83652        47.73001         1.25089
C         34.36315        20.87153        -1.76137
C         35.63358        22.86739        -1.32798
C         34.47530        22.29192        -1.87127
C         36.01870        24.21679        -1.56840
C         34.31363        25.32851        -2.34128
C         35.59754        27.28691        -1.46804
C         34.36549        26.65691        -1.91030
C         35.57917        28.68799        -1.28394
C         34.37400        29.50480        -1.72390
C         35.48040        31.50708        -0.67593
C         34.28945        30.86075        -1.06976
C         35.45563        32.88311        -0.31122
C         34.22242        33.59722        -0.30601
C         35.47114        35.68729         0.13883
C         34.22117        35.04712        -0.16547
C         35.66813        37.17867         0.06741
C         34.46586        37.99929        -0.35969
C         35.29404        39.82568         1.30778
C         34.72207        39.52158        -0.07514
C         34.99793        40.98585         1.96953
C         33.93515        41.88999         1.55221
C         33.69250        43.10572         2.13051
C         36.77132        25.09585        -0.81807
C         37.89900        27.23691        -0.61038
C         36.75716        26.53191        -1.02320
C         37.94272        28.64262        -0.58330
C         36.73685        29.37205        -0.84094
C         37.91802        31.45985        -0.26297
C         36.72398        30.78722        -0.61592
C         37.89754        32.85375         0.02842
C         36.66551        33.54403         0.04776
C         37.86101        35.64968         0.83962
C         36.62128        34.94256         0.34449
C         37.74638        37.12854         0.43887
C         36.56599        37.76584         1.12463
C         36.43249        38.99818         1.67437
C         39.14928        29.34852        -0.29632
C         40.38419        31.47303         0.03206
C         39.15996        30.73120        -0.18353
C         40.38081        32.82302         0.19352
C         39.14119        33.57676         0.25197
C         39.13351        34.92699         0.50549
O         19.20669        15.38108         4.90098
O          8.76915        33.63860        -2.92478
O         12.19608        22.23918        -1.51487
O         32.76678        40.02149        -1.45443
O         24.86425        28.86646        -3.72248
O         25.19627        54.74313         0.52234
O         17.77219        41.82759         1.27064
O         14.88345        41.66321         1.42118
O         23.66478        16.32829        -0.36438
O         18.12333        18.99764         0.01084
O         28.51362        30.80422         0.04140
O         21.74105        21.02228        -2.29669
O         26.97666        16.81194        -1.43840
O         35.49734        24.73910        -2.77330
O         11.40230        28.66574        -2.87147
O         15.24538        29.20610         0.01842
O         29.12432        34.24326         0.86953
O         32.70870        22.45854        -3.61925
O         24.49527        48.97645        -1.51073
O         16.41035        45.94955         1.92563
O         28.00431        15.17194         2.83681
O         24.21336        34.11256         0.16186
O         19.25357        30.15448        -3.77163
O         19.81929        40.03787        -2.35183
O         20.19168        54.25494         3.51880
O         24.67654        15.27468         3.75239
O         21.93870        30.15605        -3.64515
O         31.31062        27.20985        -3.56370
O         36.94585        37.24537        -0.81031
O         21.68099        16.63297         1.22854
O         26.56370        50.75161         3.11030
O         25.91588        47.62906         1.59973
O         20.24363        18.71491         3.05055
O         27.44466        19.95162        -3.03847
O         18.71738        46.44502        -1.06637
O         24.70359        19.32725         1.27920
O         19.76889        10.70917         2.36186
O         17.36145        16.87868         1.01624
O         14.14871        19.73589        -0.83295
O         30.83174        41.48085         1.30087
O         20.73206        44.77875         1.39853
O         22.69567        33.96304        -3.10059
O         30.54543        17.01521         1.19164
O         34.03210        37.68034        -1.70425
O         27.46008        22.53683        -3.64185
O         37.80458        35.66788         2.30716
H         37.85908        34.74018         2.62024
O         19.64614        34.98682         0.50978
H         19.68964        35.88423         0.90434
O         16.72552        43.66483        -1.66344
H         17.06703        44.51409        -2.01901
O         10.99648        28.03878         0.62912
H         11.01800        27.30422         1.27805
O         17.65447        32.30253        -3.58677
H         17.89139        31.64553        -4.27911
O         22.24216        55.63707         4.20718
H         22.15081        56.35070         4.87172
O         22.86909        36.39764         0.57134
H         23.12878        35.63677         1.13735
O         22.95513        36.86741        -3.02003
H         23.61218        37.39641        -3.54010
O         19.32081        20.15846        -1.98118
H         19.03868        19.24137        -1.75276
O         13.70917        20.64799         3.48400
H         12.89394        21.18813         3.54317
O         17.47561        19.70701         3.52456
H         16.60424        19.69123         3.97172
O         34.59452        29.80088        -3.15339
H         34.56770        28.94771        -3.63765
O         14.59635        21.70440        -2.25240
H         13.66286        21.50356        -2.50415
O         22.92737        29.25365        -0.57192
H         23.68135        28.93175        -0.03276
O         28.16840        56.93396         2.53784
H         28.10606        56.74747         3.49686
O         28.35655        44.67566        -2.16587
H         29.23152        45.10032        -2.29759
O         18.24861        32.35274         0.01368
H         18.53187        33.07759         0.61590
O         24.25772        38.93809         0.74937
H         24.12560        39.71991         1.32408
O         15.31264        19.27570        -1.55364
H         15.46030        20.02296        -2.19540
O         32.48549        48.10131         0.01235
H         32.04151        47.62470        -0.71861
O         27.25088        29.89537        -3.85245
H         26.39116        30.15320        -4.27218
O         21.68681        55.61216         0.57355
H         22.54273        55.90899         0.19735
O         15.51291        24.00666        -2.96265
H         16.14998        23.26970        -3.14043
O         28.12253        27.17066        -0.24331
H         28.13957        26.21497        -0.02059
O          7.97504        31.69421         0.68771
H          7.49448        31.40364         1.49056
O         21.54151        44.15540        -2.15811
H         22.24677        43.73152        -2.70086
O         31.49097        43.63209         2.85077
H         31.15704        42.71756         2.68507
O         27.99875        52.61373         4.18569
H         27.66142        51.72453         4.44307
O         32.78685        44.04252        -0.56845
H         32.53964        43.64980        -1.43076
O          9.33102        37.97326         1.07189
H         10.04156        38.55736         1.41718
O         30.55376        37.39445         1.33957
H         29.76479        36.91799         1.67645
O         20.36628        35.81272        -2.99253
H         21.20832        36.11614        -3.41375
O         24.46298        17.73265         3.22520
H         24.97896        17.08863         3.77351
O         28.12469        50.61338        -0.19950
H         28.90442        50.25725        -0.67565
O         35.76648        39.88124        -1.01794
H         35.53513        39.46842        -1.87822
O         23.07967        41.77304        -2.70047
H         22.21728        41.40796        -3.00096
O         19.68154        26.57085        -3.54249
H         18.97020        26.04405        -3.96334
O         24.69185        31.32179        -4.04702
H         23.94772        30.94393        -4.56677
O         18.25067        17.71999         4.36392
H         18.83477        17.29434         5.03426
O         22.52799        46.46695         1.80015
H         22.18051        45.61466         2.16103
O         17.72409        22.34393        -2.62668
H         18.16991        21.45970        -2.69407
O         34.35592        18.15528        -1.21374
H         34.37655        18.33225        -0.25114
O         24.42620        46.64962        -2.17984
H         24.48829        47.63043        -2.43216
O          8.87665        29.04835        -3.08371
H          9.66871        28.98715        -3.66671
O          7.37528        31.19674        -2.86217
H          7.84173        31.55559        -3.64649
O         27.03418        12.86675         0.22423
H         26.99298        11.90041         0.05919
O         20.45333        27.54571        -0.10628
H         21.15670        28.15833         0.20546
O         31.70269        33.48666         1.30437
H         30.79319        33.77573         1.56975
O         28.47775        12.62275         3.62094
H         28.52228        13.60212         3.74719
O         17.53153        23.34626         0.89213
H         16.83709        23.27727         1.58051
O         24.73757        38.59640        -2.83746
H         24.30609        39.46992        -2.96888
O         11.94925        34.87493         0.68549
H         11.89766        35.74774         1.13101
O         22.37134        14.87429         4.82981
H         23.30016        14.65959         5.07360
O         27.16675        47.18488        -1.79075
H         27.15645        46.41015        -2.39843
O         22.99075        22.87431        -3.58267
H         22.71305        21.94699        -3.76474
H          5.04034        31.15769        -0.26234
H          4.78758        33.53048        -0.92540
H          7.39228        26.95425        -0.20461
H          6.51143        29.18880         0.29784
H          6.02974        35.74414        -0.93681
H          7.21729        37.83881        -0.77962
H          9.99717        22.88131         0.71338
H          8.63312        24.77587        -0.07728
H          8.52090        40.07185        -0.73766
H          9.75775        42.17293        -0.55760
H         12.71287        19.19416         2.35267
H         11.46840        21.20057         1.65902
H         10.98283        44.27488        -0.05628
H         12.20035        46.42434         0.37776
H         15.03907        15.20009         4.07036
H         13.89504        17.43867         3.33566
H         13.50818        48.55555         0.87027
H         14.76829        50.62992         1.28853
H         17.54133        10.94863         4.85042
H         16.31781        12.91450         4.17072
H         16.02064        52.72827         1.70658
H         17.26062        54.84449         1.98469
H         19.99169         6.47174         4.09593
H         19.08591         8.52848         4.82447
H         18.65144        57.04389         2.49679
H         19.94066        59.01375         3.21589
H         23.12534         2.96014         3.25152
H         21.08287         4.28514         3.78526
H         23.44064        62.19974         3.90936
H         21.25432        61.02418         3.78887
H         25.22967         4.09963         2.57151
H         26.50122         6.18652         2.15757
H         26.75607        58.90673         2.75273
H         25.56211        61.00908         3.39853
H         27.79027         8.25267         1.92026
H         29.13949        10.29740         1.88520
H         29.06919        54.61700         2.57954
H         27.18552        56.51410         0.78547
H         30.41958        12.34509         1.30035
H         31.36460        14.03968        -0.19314
H         31.44214        50.20523         2.18182
H         30.23165        52.20894         2.82799
H         32.98914        16.26187        -0.94036
H         33.06888        18.30591        -2.80445
H         33.49282        45.88933         2.36877
H         32.51407        48.06598         2.07529
H         35.27783        20.29576        -1.55380
H         36.28025        22.23258        -0.70237
H         35.54710        41.22900         2.89238
H         34.32486        43.43849         2.96876
H         37.38941        24.71062         0.00689
H         38.79563        26.67082        -0.31772
H         38.70969        37.68567         0.39550
H         37.23890        39.43224         2.28556
H         40.08410        28.78030        -0.17927
H         41.33317        30.91671         0.04136
H         41.32546        33.36797         0.33668
H         40.08551        35.45377         0.67636
