         410
 CSIRO Nanostructure Databank - Neutral Graphene Oxide Data Set
C         28.03429        27.32014         0.93939
C         27.99979        28.74809         0.89155
C         26.77531        29.44383         0.99939
C         27.93088        31.56233         0.68462
C         26.74743        30.82356         0.89591
C         27.84833        33.01836         0.41456
C         26.68096        33.81608         0.80538
C         27.91139        35.93156         0.51761
C         26.70178        35.17409         0.75063
C         27.89551        37.37451         0.46788
C         26.68249        38.11545         0.44072
C         27.89749        40.22061         0.19827
C         26.68491        39.48890         0.33120
C         27.90902        41.65720         0.04326
C         26.73294        42.43531         0.20814
C         27.94798        44.47173        -0.33241
C         26.75844        43.80671         0.06247
C         27.98577        45.92115        -0.37326
C         30.46333        27.33299         0.67871
C         29.21662        26.64119         0.82212
C         30.45340        28.75902         0.64115
C         29.21404        29.47444         0.72472
C         30.43237        31.63874         0.53461
C         29.18138        30.90026         0.62460
C         30.42959        33.06043         0.47348
C         29.16751        33.79150         0.27601
C         30.37565        35.96261         0.52310
C         29.13861        35.25181         0.45435
C         30.36503        37.38378         0.48798
C         29.12316        38.08811         0.38993
C         30.36452        40.20722         0.00767
C         29.12363        39.50937         0.21565
C         30.34893        41.55916        -0.37483
C         29.12678        42.31247        -0.30487
C         30.30402        44.39318        -1.10936
C         29.11442        43.71579        -0.55808
C         30.30506        45.90177        -1.18390
C         29.11193        46.60755        -0.68377
C         32.87874        24.43380         0.47646
C         31.75477        25.17391         0.66340
C         32.90815        27.33895         0.40049
C         31.69865        26.61820         0.53943
C         32.89571        28.76262         0.48739
C         31.68512        29.48503         0.57133
C         32.89751        31.69138         0.57211
C         31.67090        30.93891         0.57202
C         32.87847        33.12221         0.62412
C         31.63101        33.80782         0.57355
C         32.82931        35.97601         0.72695
C         31.61322        35.24775         0.58606
C         32.79163        37.39955         0.78533
C         31.59388        38.10951         0.57666
C         32.81804        40.23794         0.29583
C         31.61328        39.53053         0.29878
C         32.91791        41.53596        -0.38734
C         31.60590        42.19836        -0.81135
C         32.89953        44.44709        -0.87712
C         31.62868        43.67356        -1.10324
C         32.80187        45.93140        -0.55136
C         31.61902        46.60466        -1.21057
C         32.95302        48.58142        -1.70291
C         31.71954        47.87452        -1.70470
C         35.26584        22.70436        -0.60676
C         35.32859        24.04478        -0.14127
C         34.13998        25.01210        -0.02181
C         35.39738        27.39406         0.05520
C         34.15213        26.58047         0.05016
C         35.33318        28.88162        -0.09278
C         34.18998        29.51898         0.65638
C         35.35625        31.76664         0.51980
C         34.15011        31.02538         0.51494
C         35.34830        33.18743         0.69261
C         34.09938        33.87070         0.72632
C         35.32054        36.02612         0.98712
C         34.08438        35.29127         0.81568
C         35.29995        37.42272         1.10686
C         34.02198        38.12451         1.10249
C         35.33018        40.32695         0.65163
C         34.02723        39.65704         0.86837
C         35.32235        41.72263         0.27495
C         34.13335        42.36767        -0.16837
C         35.29405        44.53990        -0.15219
C         34.12390        43.75761        -0.38297
C         35.30289        45.98573        -0.39618
C         34.12294        46.64153        -0.75984
C         35.38554        48.73348        -1.21864
C         34.13343        47.99752        -1.23740
C         35.47371        50.07156        -1.70199
C         37.73400        22.39849        -0.59029
C         36.41290        21.90418        -0.76355
C         37.81237        23.75061        -0.20951
C         36.63523        24.46805         0.09290
C         37.85625        27.55612        -0.14873
C         36.63419        26.84108         0.13447
C         37.89024        28.97925         0.24573
C         36.59419        29.67656        -0.05489
C         37.84746        31.76019         0.40930
C         36.62572        31.10082         0.34979
C         37.86529        33.22325         0.62603
C         36.57197        33.92128         0.84722
C         37.81922        36.02179         1.44670
C         36.56622        35.29760         1.06103
C         37.82229        37.50316         1.25131
C         36.52020        38.24048         1.47118
C         37.76957        40.33841         0.70695
C         36.51673        39.64776         0.88483
C         37.77128        41.76665         0.55865
C         36.52550        42.47425         0.39021
C         37.69825        44.67846         0.47832
C         36.48537        43.88545         0.22210
C         37.75412        46.09745         0.07836
C         36.54115        46.73783        -0.30574
C         37.70950        48.95960        -0.42567
C         36.52656        48.12561        -0.65282
C         37.80998        50.28553        -1.03275
C         36.64799        50.80055        -1.65400
C         40.26253        20.31521        -2.50611
C         39.06912        20.73771        -1.95257
C         40.25188        22.16055        -0.40215
C         39.01442        21.72220        -0.91969
C         40.26119        24.37564         0.09024
C         39.00285        24.59833        -0.36969
C         40.29415        27.43367        -0.50672
C         38.96892        26.89924        -0.59892
C         40.33793        28.90626        -0.53633
C         39.06997        29.70833        -0.31695
C         40.35127        31.70516         0.33560
C         39.11170        31.10898         0.12739
C         40.40421        33.00760         0.97385
C         39.18231        33.88054         0.96862
C         40.37893        36.10650         1.40121
C         39.13849        35.28926         1.54777
C         40.31572        37.59875         1.29195
C         38.97221        38.20073         0.99033
C         40.23635        40.30998         0.44739
C         38.98860        39.62991         0.73018
C         40.23436        41.75857         0.37219
C         39.00317        42.45281         0.50861
C         40.27223        44.63341         0.35519
C         39.01669        43.91720         0.61207
C         40.25243        46.04279         0.12770
C         39.01724        46.74701         0.03920
C         40.26884        48.88700        -0.53115
C         39.05992        48.21535        -0.09189
C         40.28191        50.26636        -0.80516
C         39.04957        50.99086        -0.98557
C         40.30034        53.08010        -1.22006
C         39.10832        52.39921        -1.22271
C         42.73947        20.63750        -2.76556
C         41.50506        20.87999        -2.09515
C         42.73005        22.41463        -0.63743
C         41.49748        21.78809        -0.99654
C         42.70255        24.58806        -0.02563
C         41.45678        25.21106        -0.10360
C         42.72196        27.35318        -0.32734
C         41.45432        26.65115        -0.35568
C         42.76575        28.78483        -0.22800
C         41.59198        29.57915        -0.23430
C         42.83987        31.51947         0.48548
C         41.58690        30.94046         0.17093
C         42.89833        32.82531         1.14362
C         41.60435        33.37902         1.51787
C         42.86401        36.03089         1.00041
C         41.63016        35.56748         1.59681
C         42.75037        37.39633         0.41164
C         41.44793        38.14316         0.45966
C         42.69217        40.25822        -0.09473
C         41.43518        39.60517         0.28494
C         42.71166        41.78853        -0.02898
C         41.45378        42.48807         0.29036
C         42.75883        44.65762         0.52889
C         41.46968        43.90297         0.32440
C         42.73071        46.05097        -0.05493
C         41.50720        46.70363        -0.17864
C         42.80903        48.82317        -0.86807
C         41.47092        48.07389        -0.71903
C         42.78404        50.29114        -0.83569
C         41.54245        50.97100        -0.93380
C         42.77399        53.08690        -1.02622
C         41.54114        52.38831        -1.06382
C         43.89224        21.32340        -2.42843
C         45.13280        23.06058        -1.04681
C         43.91279        22.26874        -1.35909
C         45.13353        24.45587        -0.67117
C         43.93868        25.20779        -0.38900
C         45.20471        27.32984        -0.48834
C         43.95105        26.63328        -0.38928
C         45.23131        28.76319        -0.35198
C         44.02623        29.45545        -0.13403
C         45.25440        31.59276         0.09946
C         44.04401        30.85151         0.17549
C         45.17053        33.07552         0.04838
C         44.10046        33.77016         0.84726
C         45.21849        35.97418         0.27835
C         44.01397        35.27195         0.74913
C         45.20161        37.39717         0.18535
C         44.00232        38.14677         0.21611
C         45.21684        40.28656         0.05426
C         43.97576        39.53868         0.02383
C         45.22656        41.74280         0.17065
C         44.00518        42.48414         0.15414
C         45.23031        44.59682         0.12666
C         44.01275        43.88456         0.20954
C         45.23054        46.02557        -0.03067
C         43.98868        46.73623        -0.21445
C         45.26227        48.84719        -0.46118
C         44.03711        48.11620        -0.49558
C         45.26168        50.26733        -0.62108
C         44.00780        50.99841        -0.75952
C         43.96841        52.41601        -0.84879
C         47.58811        23.10771        -1.07370
C         46.36651        22.43871        -1.25565
C         47.62449        24.47632        -0.81451
C         46.37761        25.18058        -0.70576
C         47.66990        27.34883        -0.95900
C         46.39504        26.60285        -0.63016
C         47.68215        28.79608        -0.52692
C         46.46754        29.48944        -0.35324
C         47.68625        31.65416        -0.31496
C         46.45282        30.92105        -0.19432
C         47.69288        33.07852        -0.36017
C         46.43432        33.84462        -0.29123
C         47.68336        36.00809        -0.12210
C         46.44588        35.29367         0.00561
C         47.70296        37.38976        -0.06490
C         46.41595        38.13153        -0.29980
C         47.66335        40.26939         0.42617
C         46.41091        39.58726         0.07626
C         47.70781        41.73452         0.41933
C         46.45030        42.43476         0.31121
C         47.68861        44.54780         0.22781
C         46.46742        43.87326         0.23702
C         47.70928        45.95029        -0.17081
C         46.45323        46.71834        -0.15351
C         47.74434        48.84549        -0.28321
C         46.49677        48.13116        -0.30784
C         47.70057        50.25208        -0.44046
C         46.50682        50.93450        -0.61212
C         50.09796        24.49024        -0.35135
C         48.88921        25.19532        -0.59595
C         50.13608        27.30635        -0.35036
C         48.91875        26.59724        -0.57145
C         50.16196        28.74783        -0.36691
C         48.91310        29.49652        -0.46242
C         50.15754        31.65980        -0.42538
C         48.89892        30.91391        -0.38930
C         50.12141        33.10631        -0.18552
C         48.92329        33.79158        -0.30319
C         50.24027        35.95930        -0.19463
C         48.93954        35.27604        -0.57902
C         50.27739        37.42096        -0.27755
C         48.95678        38.15059        -0.22328
C         50.24359        40.29592         0.31401
C         48.98372        39.53348         0.32942
C         50.19640        41.68663         0.52966
C         48.93346        42.39024         0.51632
C         50.23290        44.58184         0.48091
C         48.92356        43.87885         0.76142
C         50.26455        45.96328         0.27065
C         49.04055        46.69400        -0.15073
C         50.21114        48.82526         0.14635
C         48.99475        48.16137        -0.07316
C         51.28508        25.15954        -0.13768
C         52.58866        27.28375         0.07921
C         51.34842        26.57872        -0.14140
C         52.57025        28.68922         0.14945
C         51.37877        29.41124        -0.13475
C         52.67130        31.59060         0.16861
C         51.46158        30.88088        -0.26010
C         52.63961        33.04193         0.38650
C         51.34867        33.80592         0.22022
C         52.66773        35.95579         0.26863
C         51.40437        35.27702         0.07877
C         52.69368        37.38576         0.29695
C         51.49925        38.13757         0.11260
C         52.69800        40.22322         0.57412
C         51.48197        39.54990         0.27614
C         52.65318        41.63752         0.97659
C         51.42102        42.43227         0.76490
C         52.67946        44.61498         0.95257
C         51.43085        43.83700         0.76399
C         52.72633        46.03215         0.54660
C         51.48520        46.72151         0.33171
C         51.41755        48.13236         0.26444
C         55.05667        27.23899         0.17809
C         53.86459        26.59536         0.06096
C         55.12035        28.65655         0.55348
C         53.79535        29.42581         0.52278
C         55.10215        31.59037         0.49073
C         53.85793        30.89794         0.38690
C         55.11782        33.04322         0.45267
C         53.91114        33.78154         0.39566
C         55.13578        35.91663         0.47780
C         53.89282        35.21208         0.39517
C         55.15406        37.35670         0.51518
C         53.93341        38.08605         0.47857
C         55.18573        40.22173         0.64546
C         53.93007        39.51623         0.59787
C         55.21695        41.64857         0.65688
C         54.01413        42.37165         1.07799
C         55.22168        44.55516         0.56459
C         54.01932        43.86471         1.05300
C         55.17985        45.94573         0.39475
C         53.97339        46.65988         0.42502
C         56.34005        29.45491         0.37764
C         56.31605        30.82067         0.43467
C         56.33616        33.78120         0.51527
C         56.33770        35.15770         0.53402
C         56.37604        38.08815         0.57989
C         56.38899        39.46296         0.60766
C         56.35774        42.39620         0.27424
C         56.36400        43.78287         0.23180
O         45.39680        33.54889        -1.31083
O         32.40590        41.44690        -1.76495
O         38.27328        48.89894         0.92035
O         33.86531        39.10029         2.21734
O         28.39755        33.35583        -0.89957
O         38.29478        44.42309         1.79529
O         41.81223        37.40055        -0.74627
O         40.35162        23.07165         0.68418
O         53.38308        44.42527         2.23044
O         42.61762        41.08481        -1.31420
O         32.49193        44.05010        -2.21394
O         51.77316        33.36812         1.57323
O         48.50024        46.16946        -1.41939
O         54.38023        28.96707         1.78377
O         35.86287        29.45422        -1.31495
O         42.11684        48.23405        -2.02243
O         51.01692        31.33866        -1.59855
O         39.51050        29.44568        -1.66131
O         36.86452        25.63976         0.79076
O         38.35200        35.52108         2.75463
O         38.73217        25.67432        -1.21396
O         30.03601        45.08117        -2.37678
O         48.29340        39.63218         1.62000
O         41.67527        34.43005         2.41544
O         38.66619        33.92118        -0.40847
O         33.96472        25.83564        -1.21614
O         49.62934        37.99224        -1.51615
O         42.76229        23.27457         0.46903
O         53.34834        41.84337         2.25402
O         43.95886        33.08689         2.12176
O         42.83770        44.84647         1.99424
H         42.00591        45.28126         2.28158
O         32.53207        45.96105         0.89676
H         32.64308        46.88596         1.20357
O         48.78452        44.01607         2.23960
H         49.51199        43.49737         2.64811
O         47.68436        27.40397        -2.43816
H         48.45903        27.94518        -2.70284
O         46.30242        38.14662        -1.78847
H         46.14520        37.22159        -2.07934
O         36.44055        38.43367         2.92779
H         35.53668        38.79389         3.10738
O         40.60897        38.08581         2.65018
H         39.89090        37.76595         3.23982
O         38.05089        29.06726         1.69865
H         37.22778        28.73469         2.11835
O         34.58211        29.28058         2.06910
H         33.86972        29.64414         2.63783
O         48.88246        35.36938        -2.04161
H         49.03773        36.32095        -2.26679
H         27.08854        26.77144         1.05526
H         25.84234        28.87934         1.13726
H         25.78098        31.34316         0.94228
H         25.77120        33.30666         1.15298
H         25.78305        35.71952         1.00700
H         25.71825        37.59282         0.49364
H         25.72216        40.01650         0.30655
H         25.79054        41.94932         0.49340
H         25.84797        44.39738         0.23794
H         27.08412        46.46189        -0.04878
H         29.19896        25.54388         0.83763
H         29.14794        47.70213        -0.58070
H         32.85744        23.35803         0.70739
H         30.85153        24.64686         1.00069
H         32.95544        49.60442        -2.09862
H         30.83210        48.36720        -2.12781
H         34.28764        22.25390        -0.83215
H         34.59788        50.53579        -2.17297
H         36.27013        20.86161        -1.08412
H         36.67032        51.80160        -2.10634
H         40.25413        19.58286        -3.32579
H         38.12298        20.34400        -2.35146
H         40.31388        54.17250        -1.34421
H         38.17134        52.95914        -1.34914
H         42.75555        19.93003        -3.60676
H         42.76935        54.18247        -1.11982
H         44.80557        21.15713        -3.01739
H         44.89797        52.99807        -0.79794
H         48.51890        22.53595        -1.18949
H         46.39044        21.37676        -1.53806
H         48.63503        50.82891        -0.44591
H         46.54753        52.02383        -0.74307
H         50.09613        23.39216        -0.32337
H         50.23945        49.92240         0.19450
H         52.19264        24.57198         0.05462
H         52.33735        48.72062         0.38179
H         55.99791        26.69722         0.00229
H         53.87408        25.52224        -0.17521
H         56.10339        46.47512         0.11889
H         54.01480        47.73530         0.20352
H         57.29053        28.92978         0.20191
H         57.27302        31.35364         0.34761
H         57.29789        33.25482         0.57100
H         57.30522        35.67197         0.60099
H         57.33618        37.55676         0.59816
H         57.35528        39.98292         0.65761
H         57.26668        41.86194        -0.03481
H         57.27054        44.30683        -0.10365
