         294
 CSIRO Nanostructure Databank - Neutral Graphene Oxide Data Set
C          2.12171         2.00870         2.38591
C          2.25215         3.45222         2.57959
C          3.05801         1.30418         1.69155
C          2.42484         4.31917         1.53613
C          1.54485         6.60066         1.75671
C          1.52582         7.92838         1.59239
C          2.81817         5.77405         1.73989
C          2.74276         8.69566         1.24257
C          1.35962        10.90387         0.93663
C          1.25197        12.18980         0.56445
C          2.63500        10.14808         0.83179
C          2.32900        12.92375        -0.15116
C          1.35760        15.16805         0.60026
C          1.48643        16.47390         0.90492
C          2.44122        14.40592        -0.02661
C          2.79101        17.18954         0.65378
C          2.64184        18.68260         0.45467
C          4.26897         1.92162         1.18524
C          4.69165         3.30027         1.61833
C          5.18758         1.28385         0.39273
C          5.19944         4.12984         0.42995
C          3.82412         6.34905         0.64411
C          3.96158         7.86317         0.85111
C          5.27927         5.67627         0.66716
C          5.09676         8.53776         0.14655
C          3.63494        10.62778        -0.22683
C          3.58280        12.13998        -0.53448
C          5.02954        10.04596         0.00080
C          4.79065        12.88724        -0.87065
C          3.53275        15.06845        -0.52699
C          3.49725        16.58983        -0.57196
C          4.70317        14.34484        -1.07244
C          4.80775        17.29593        -0.76393
C          3.55496        19.39691        -0.21388
C          4.80917        18.80228        -0.80919
C          6.40178         1.94631        -0.05953
C          6.59616         3.44309         0.20870
C          7.44626         1.25027        -0.58002
C          7.34930         4.16967        -0.93927
C          6.27285         6.40176        -0.28408
C          6.19099         7.75001        -0.49418
C          7.58904         5.65569        -0.53029
C          7.28605         8.52488        -1.17912
C          6.21729        10.82350        -0.46071
C          6.15480        12.35866        -0.54724
C          7.28653        10.07550        -1.19581
C          7.30246        13.02941        -1.27916
C          6.00151        15.11470        -1.26656
C          6.01437        16.59790        -1.08796
C          7.30950        14.40428        -1.23167
C          7.36093        17.29179        -0.76378
C          6.03740        19.27853        -0.05999
C          7.24959        18.62283        -0.09211
C          8.64617         1.92829        -1.13306
C          8.62700         3.40150        -1.37559
C          9.95338         1.23754        -1.09423
C          9.96109         4.13425        -1.68119
C          8.56891         6.25098        -1.58118
C          8.54215         7.79736        -1.58604
C          9.89094         5.59420        -1.28491
C          9.87115         8.57341        -1.69096
C          8.52283        10.81662        -1.62693
C          8.56643        12.34424        -1.72546
C          9.77094        10.05176        -1.16032
C          9.81900        12.97910        -1.18424
C          8.54514        15.09565        -0.88072
C          8.53449        16.43639        -0.52206
C          9.75400        14.26321        -0.71996
C          9.60257        17.01580         0.39848
C          8.45746        19.22481         0.36952
C          9.68033        18.53415         0.40781
C         11.14236         1.89321        -1.07343
C         11.22196         3.39832        -1.14180
C         12.39445         1.12888        -1.18943
C         12.32422         4.21420        -0.49691
C         11.16915         6.36137        -1.25410
C         10.96872         7.85465        -0.86668
C         12.09510         5.70079        -0.18291
C         12.35331         8.58016        -0.92535
C         11.10583        10.76063        -1.27008
C         11.11540        12.25915        -1.55546
C         12.27097        10.10221        -0.95190
C         12.32456        12.89078        -0.87094
C         11.00575        14.93578        -0.27957
C         10.95678        16.35568         0.14604
C         12.23924        14.40493        -0.91746
C         12.12635        17.24333        -0.14902
C         10.88802        19.19330         0.68467
C         12.16118        18.54297         0.56887
C         13.48249         1.41348        -0.41786
C         13.38577         3.60817         0.34418
C         14.82565         0.92233        -0.55336
C         14.50735         4.31509         0.72017
C         13.35330         6.48669         0.07246
C         13.29493         8.00357         0.17550
C         14.49149         5.83123         0.80149
C         14.70631         8.72104         0.13139
C         13.57532        10.76089        -0.96719
C         13.63625        12.16722        -1.19097
C         14.77071         9.95016        -0.77890
C         14.90136        12.80171        -1.18141
C         13.19129        15.28191        -1.29183
C         13.33388        16.67923        -0.81557
C         15.09896        14.19616        -1.35566
C         14.74956        17.29753        -0.57179
C         13.39681        19.06672         0.83499
C         14.62450        18.19125         0.72452
C         15.88540         1.37295         0.21851
C         15.71250         3.62159         1.07521
C         17.22742         0.92183        -0.00465
C         16.94499         4.29429         1.09720
C         15.83119         6.44990         0.45975
C         15.90284         7.79386         0.04842
C         17.01104         5.70914         0.71270
C         17.16545         8.39577        -0.10083
C         16.01904        10.56258        -0.79362
C         16.01158        12.03759        -0.51707
C         17.32954         9.82507        -0.58740
C         17.38659        12.68152        -0.70152
C         16.07862        14.95384        -0.70059
C         16.00483        16.36317        -0.34668
C         17.35375        14.20406        -0.58047
C         17.10985        16.94274         0.27781
C         15.87665        18.97864         0.91664
C         17.10793        18.33158         0.76897
C         18.31829         1.40644         0.69740
C         18.16833         3.59145         1.30535
C         19.69186         1.11331         0.44985
C         19.43915         4.14507         1.10142
C         18.26636         6.34628         0.63560
C         18.33713         7.70079         0.25869
C         19.54099         5.66390         1.08633
C         19.62449         8.41186         0.31192
C         18.27974        10.52436         0.45785
C         18.35781        12.10262         0.37894
C         19.64273         9.82837         0.35605
C         19.73142        12.73168         0.20085
C         18.56166        14.88471        -0.09334
C         18.39194        16.18895         0.62184
C         19.77789        14.08531         0.21039
C         19.63542        17.08423         0.35000
C         18.28552        18.99271         1.16032
C         19.61238        18.30638         1.29701
C         20.72254         1.97699         0.78186
C         20.63377         3.37891         1.04732
C         21.89980         4.10218         1.01570
C         20.73185         6.15182         0.25204
C         20.82352         7.66615         0.32523
C         21.97772         5.40611         0.67615
C         22.04691         8.34474         0.31510
C         20.88670        10.48891         0.31919
C         21.02500        11.97426         0.07735
C         22.07118         9.73609         0.28526
C         22.11743        12.68587         0.85658
C         21.06202        14.83224         0.30437
C         20.99000        16.34855         0.38482
C         22.17846        14.02908         0.87330
C         22.14980        17.16241         0.77322
C         20.80444        19.17674         1.01914
C         22.03342        18.55229         0.89365
O         13.28580         2.28022         0.68618
O         21.31421        15.63567        -0.89488
O         12.40352        17.52915        -1.58537
O          6.01694        10.51582         0.96105
O          2.49121        12.42540        -1.52731
O          6.86175        17.28439        -2.12725
O          3.13196         9.78168         2.14930
O         12.41540         3.82531        -1.89857
O         11.20166        15.29929         1.14355
O         18.31358        14.87063        -1.54301
O          5.01911         3.55041         2.77926
O         14.91205         9.44645         1.36610
O         14.19249        14.87181        -2.16530
O          5.16827        14.77814        -2.43678
O          7.53122        10.42443        -2.61044
O          8.31498         2.49546        -2.48010
O         18.07241         2.27696         1.77804
O          5.11687         8.25416         1.62269
O          7.53091         8.13386        -2.57758
O         15.64550         2.24209         1.30918
O          5.87339         5.81506         1.97296
H          5.83476         6.78360         2.20207
O         15.05201        18.10869        -1.70203
H         14.20021        18.39116        -2.10454
O          6.48682         4.19743        -2.09622
H          6.88802         3.57048        -2.75176
O         17.99847         9.72166        -1.86315
H         18.06381        10.63068        -2.24872
O         15.64518        12.07284         0.90785
H         15.26773        11.16754         1.15768
O         13.02434         8.28249        -2.16770
H         12.48646         8.65234        -2.90121
O         12.14386        12.59230         0.54441
H         12.86141        13.02636         1.05286
O          2.70091        16.94489        -1.73568
H          3.18469        16.64176        -2.53395
O         18.33171        15.81105         2.03083
H         17.96549        14.89802         2.09753
O         19.47844        17.61775        -0.97307
H         19.62645        16.88315        -1.60988
O          9.47295        10.11862         0.26436
H         10.10586         9.53797         0.75637
O          2.06357         3.96854         0.27315
H          1.86317         3.00896         0.25320
O          8.20814         5.82231        -2.90340
H          7.44731         6.37556        -3.19413
O         19.75326        17.90496         2.69119
H         19.09488        17.19153         2.87126
O          7.39844         3.52670         1.39485
H          6.81514         3.45149         2.18880
O         19.80228         6.08425         2.45379
H         18.98757         5.94427         2.98003
O         10.26640         8.60398        -3.07379
H          9.45209         8.76395        -3.60292
O         12.76558         8.30677         1.49295
H         13.44379         8.96735         1.87099
O         11.78102         6.21752        -2.54982
H         11.24480         6.75509        -3.17693
O         17.71571        10.18617         1.75079
H         16.76682         9.88521         1.64518
O         14.53053        17.19380         1.80285
H         14.48799        17.67598         2.65541
O         14.26206         6.09544         2.23432
H         13.75258         6.94193         2.29952
O         20.45556         5.79299        -1.12961
H         21.07082         6.29222        -1.70557
O          4.36857         3.81676        -0.69576
H          4.92031         3.93720        -1.51541
O          3.23491         9.95267        -1.45100
H          2.64955        10.57844        -1.94326
O          3.25532         6.21554        -0.65573
H          3.21424         5.24995        -0.87187
O         11.29309        12.42826        -2.98122
H         10.39649        12.47058        -3.40190
O         17.85034        12.37397        -2.02744
H         18.39801        13.14266        -2.32322
O         21.41362        12.08036        -1.33391
H         21.53349        13.03315        -1.53890
O         17.94794        12.65686         1.65140
H         17.64909        11.87623         2.19312
O          3.40719         5.91323         3.03745
H          4.20326         5.32760         3.09187
O          3.66392        16.94734         1.78920
H          3.24701        17.33482         2.58635
O         10.10597         4.09352        -3.12135
H         11.00137         4.46258        -3.30920
O          4.89046        19.23853        -2.19838
H          5.68679        18.79838        -2.58063
O          9.16192        16.67661         1.73933
H          9.67748        15.87657         2.00876
O          6.39071        12.90228         0.81542
H          6.18776        12.17935         1.46117
O         11.34645         5.64888         1.06755
H         10.37369         5.65789         0.85344
O         10.43852         7.85282         0.46785
H         11.17316         7.70172         1.12056
O          8.63309        12.61012        -3.17912
H          7.90929        12.08253        -3.59116
O          8.32901         5.76575         0.70310
H          7.71966         5.53410         1.45049
H          1.29432         1.47186         2.88024
H          2.40635         3.83115         3.60226
H          2.93271         0.22129         1.53601
H          0.60919         6.07367         1.99775
H          0.57409         8.47077         1.69064
H          0.52048        10.43133         1.46763
H          0.30249        12.71429         0.74720
H          0.41487        14.65167         0.82946
H          0.66333        17.01588         1.39594
H          1.75639        19.17764         0.88582
H          5.03123         0.23436         0.09590
H          3.42080        20.48167        -0.34350
H          7.38750         0.15527        -0.68626
H          5.96586        20.22424         0.49860
H          9.94569         0.13688        -1.09372
H          8.45086        20.30695         0.57444
H         12.45291         0.34140        -1.95473
H         10.86247        20.26694         0.92826
H         15.03730         0.21330        -1.36585
H         13.49960        20.06804         1.28154
H         17.39785         0.21413        -0.82804
H         15.83447        20.01552         1.28363
H         19.94193         0.16794        -0.05499
H         18.18912        20.01092         1.57093
H         21.74583         1.60051         0.61995
H         22.81850         3.52905         1.21741
H         22.96586         5.88436         0.60942
H         22.99894         7.79704         0.29860
H         23.03766        10.25407         0.21423
H         22.92372        12.09452         1.31670
H         23.01705        14.54871         1.36077
H         23.14738        16.70603         0.69889
H         20.72069        20.27244         1.03566
H         22.95305        19.15743         0.89262
