         470
 CSIRO Nanostructure Databank - Neutral Graphene Oxide Data Set
C         38.79492        50.72199         4.53243
C         37.94925        51.48324         5.26334
C         39.10818        53.56087         4.70452
C         38.06057        52.92906         5.28097
C         40.89535        49.09549         3.01010
C         40.87355        50.56381         2.92382
C         39.84355        51.35901         3.70025
C         41.35582        53.42504         3.33978
C         40.19222        52.77724         4.06519
C         41.43703        54.88600         3.22726
C         43.11573        49.00828         1.96485
C         41.96184        48.38275         2.58431
C         43.13795        50.42871         1.82691
C         42.09981        51.23162         2.41374
C         43.21066        53.28579         1.63329
C         42.20509        52.61956         2.42343
C         43.22061        54.69066         1.56321
C         42.31981        55.46566         2.37364
C         45.27923        46.04652         1.25174
C         44.29800        46.81229         1.76757
C         45.28264        48.86403         0.80156
C         44.19604        48.23500         1.48166
C         45.31753        50.28517         0.67663
C         44.23378        51.06541         1.17814
C         45.29308        53.08417         0.27212
C         44.23526        52.48653         0.98809
C         45.21027        54.49904        -0.09057
C         44.10548        55.37063         0.60418
C         45.38365        57.35580        -0.07280
C         44.39050        56.80073         0.68168
C         47.52878        44.43075         0.19868
C         47.53611        45.83422         0.16742
C         46.22416        46.58385         0.20670
C         47.53200        48.70968        -0.15929
C         46.37998        48.08504         0.31327
C         47.57447        50.14373        -0.32357
C         46.44524        50.92094         0.06858
C         47.55119        52.96058        -0.78959
C         46.43637        52.33167        -0.14842
C         47.55896        54.39979        -0.99385
C         46.39177        55.18551        -0.62060
C         47.42796        57.22023        -1.62307
C         46.36715        56.56929        -0.75602
C         47.53780        58.71084        -1.49523
C         49.94988        44.34730        -0.05494
C         48.70236        43.69448         0.08634
C         49.95696        45.76782        -0.09433
C         48.76146        46.51918        -0.00553
C         49.91729        48.59894        -0.69880
C         48.76579        47.94909        -0.30181
C         49.79974        49.88441        -1.48662
C         48.70123        50.77978        -0.90970
C         49.84490        52.81725        -1.80924
C         48.67619        52.16437        -1.16053
C         49.91645        54.31685        -1.82158
C         48.71642        55.07150        -1.40635
C         49.95479        57.18822        -1.53745
C         48.75265        56.50792        -1.47918
C         49.99205        58.63249        -1.37629
C         48.72073        59.34580        -1.41432
C         52.35850        41.47305        -0.18647
C         51.26018        42.21181         0.11306
C         52.40389        44.29485        -0.52591
C         51.18746        43.61689        -0.18938
C         52.45316        45.71627        -0.50920
C         51.24001        46.46769        -0.17033
C         52.45840        48.58591        -0.99030
C         51.21873        47.96813        -0.48810
C         52.44628        49.92867        -1.39717
C         51.15079        50.59637        -1.71196
C         52.42292        52.84326        -1.79305
C         51.15461        52.08811        -1.90015
C         52.44921        54.26012        -1.78299
C         51.23129        54.98674        -1.80082
C         52.51682        57.16876        -1.54612
C         51.21892        56.45120        -1.77314
C         52.45738        58.52336        -0.88381
C         51.18365        59.29880        -1.13743
C         52.41964        61.39628        -0.89779
C         51.25385        60.71500        -0.81912
C         54.80076        39.84624        -0.64657
C         54.75859        41.26600        -1.04167
C         53.44320        42.05791        -1.05271
C         54.82671        44.22802        -0.86649
C         53.60149        43.55063        -0.77355
C         54.86502        45.66832        -0.89171
C         53.65368        46.41105        -0.77076
C         54.89122        48.52371        -1.21761
C         53.66893        47.84830        -0.94884
C         54.88938        49.91647        -1.50546
C         53.67034        50.60746        -1.64447
C         54.97854        52.83094        -1.89555
C         53.65626        52.06356        -1.97269
C         54.92995        54.25927        -1.55802
C         53.73788        54.96059        -1.60071
C         54.94849        57.10029        -1.12797
C         53.76615        56.39301        -1.36011
C         54.90006        58.57067        -1.13724
C         53.73049        59.28085        -1.16934
C         54.90833        61.55033        -1.36720
C         53.62521        60.75279        -1.54063
C         55.02483        62.88507        -1.99747
C         57.24727        39.87151        -0.33509
C         55.96797        39.19206        -0.40601
C         57.26340        41.24133        -0.54288
C         56.08169        42.00678        -0.98857
C         57.27077        44.18457        -0.76592
C         56.08355        43.49772        -0.87665
C         57.33661        45.63484        -0.84276
C         56.09884        46.37592        -1.01489
C         57.37682        48.49851        -1.20448
C         56.12768        47.78171        -1.16903
C         57.42517        49.87126        -1.37393
C         56.19678        50.58545        -1.89003
C         57.42003        52.74173        -1.53357
C         56.22501        52.07556        -1.63774
C         57.43677        54.24938        -1.73289
C         56.21532        54.88573        -1.03436
C         57.44154        57.06072        -1.06360
C         56.22658        56.40060        -1.10039
C         57.44659        58.53793        -0.87076
C         56.16922        59.30769        -0.93926
C         57.40922        61.40741        -1.74689
C         56.18377        60.80239        -1.14246
C         57.49296        62.86431        -1.95074
C         56.22443        63.52300        -2.14219
C         59.71012        37.06393         0.41039
C         58.52719        37.74202         0.14247
C         59.72095        39.83855         0.14070
C         58.48902        39.14997         0.00002
C         59.73455        41.31432         0.14454
C         58.46535        42.01960        -0.22544
C         59.83627        44.13486        -0.57606
C         58.53983        43.42052        -0.72460
C         59.74125        45.58241        -0.25712
C         58.53144        46.30883        -0.69093
C         59.75167        48.52526        -0.40218
C         58.67993        47.73860        -1.13947
C         59.88604        49.94422        -0.83619
C         58.66860        50.61303        -1.27142
C         59.92832        52.73615        -1.52063
C         58.65594        52.00732        -1.40967
C         59.94565        54.21580        -1.38773
C         58.75312        54.91764        -1.36642
C         59.93048        57.05094        -1.10952
C         58.72999        56.36564        -1.15906
C         59.99799        58.53071        -1.05595
C         58.72617        59.30267        -1.04037
C         59.94786        61.34462        -1.98501
C         58.67802        60.62777        -1.74370
C         60.02133        62.75598        -2.00078
C         58.75636        63.49701        -2.01512
C         60.00727        65.60024        -1.92348
C         58.82166        64.92807        -2.05217
C         62.29691        35.63087         0.72630
C         62.21460        37.00874         0.69244
C         60.95270        37.73277         0.51328
C         62.16893        39.91002         0.51554
C         60.93969        39.14839         0.35452
C         62.20833        41.33203         0.38306
C         61.02096        42.05144         0.08188
C         62.27606        44.16990         0.01909
C         61.05256        43.43123        -0.10233
C         62.28703        45.61360         0.05641
C         60.97939        46.30583         0.15864
C         62.23232        48.53011         0.37298
C         60.93267        47.80584         0.18383
C         62.27192        49.99343        -0.04921
C         61.09167        50.60644        -0.71306
C         62.49320        52.74276        -1.04952
C         61.21737        51.97377        -1.25510
C         62.43203        54.22575        -1.01539
C         61.23082        54.88363        -1.22662
C         62.45248        57.09628        -0.99460
C         61.22180        56.36386        -1.50580
C         62.47228        58.57777        -1.27429
C         61.17691        59.18354        -1.67794
C         62.89799        61.59650        -2.02125
C         61.05466        60.45659        -2.18402
C         62.57206        62.86253        -1.61499
C         61.27659        63.50680        -1.85512
C         62.44343        65.70196        -1.40048
C         61.24885        64.91273        -1.75157
C         62.51844        67.09418        -1.62663
C         64.76694        35.53852         0.71324
C         63.53406        34.91850         0.74107
C         64.81443        37.02111         0.67356
C         63.48404        37.78364         0.67436
C         64.44172        40.05815         1.27148
C         63.34828        39.25351         0.89948
C         64.64580        41.37859         0.85209
C         63.44508        42.04893         0.44210
C         64.77040        44.11186         0.16672
C         63.46812        43.44214         0.22410
C         64.76611        45.63360         0.10313
C         63.47393        46.34332         0.18131
C         64.72678        48.47303         0.42982
C         63.50297        47.76928         0.34862
C         64.71543        49.92720         0.31732
C         63.60900        50.61064        -0.12710
C         64.85149        52.82961        -0.01676
C         63.70844        52.03475        -0.52711
C         64.80567        54.24690        -0.20054
C         63.68191        54.93293        -0.73388
C         64.86201        57.10273        -0.42131
C         63.72099        56.35761        -0.78904
C         64.81574        58.58912        -0.39627
C         63.80717        59.27938        -1.28619
C         65.08413        61.47296        -0.78659
C         64.00775        60.77049        -1.51833
C         64.99161        62.95937        -0.68663
C         63.71441        63.63882        -1.06661
C         64.67920        65.81647        -0.32503
C         63.55975        65.07903        -0.79462
C         64.78442        67.17019        -0.70793
C         63.69007        67.78652        -1.35798
C         67.28102        32.69408         0.40987
C         66.08308        33.39643         0.61347
C         67.21739        35.50519         0.21546
C         66.02386        34.80909         0.52785
C         67.30709        36.91698         0.41714
C         66.16520        37.61094         0.90071
C         67.36451        39.78948         0.85797
C         66.36031        38.95869         1.29850
C         67.30072        41.29622         1.11479
C         65.94861        42.02961         0.85907
C         67.23072        44.16662         0.60031
C         65.99211        43.39271         0.59599
C         67.20006        45.60809         0.55785
C         66.01209        46.34301         0.45214
C         67.22848        48.48523         0.69430
C         65.98868        47.77229         0.50480
C         67.24740        49.96561         0.38453
C         65.93968        50.67700         0.78314
C         67.24614        52.82732         0.57838
C         65.98512        52.14867         0.43159
C         67.22729        54.28933         0.70701
C         65.90625        55.03708         0.35998
C         67.19456        57.17420         0.49336
C         66.01180        56.47072         0.10367
C         67.27394        58.58877         0.38002
C         66.06189        59.33667        -0.01465
C         67.36195        61.53181         0.11648
C         66.15064        60.78888        -0.29704
C         67.11068        62.89989         0.65016
C         65.85401        63.63205         0.35505
C         66.83152        66.04054         1.08888
C         65.72151        65.16361         0.53829
C         66.87279        67.42874         0.61901
C         65.98579        67.93164        -0.37486
C         67.21550        70.05635        -0.44274
C         66.21816        69.21103        -0.92455
C         69.70445        31.18484        -0.31919
C         69.67818        32.60017        -0.27856
C         68.44879        33.31700        -0.02323
C         69.71600        35.49714        -0.21644
C         68.39456        34.77978        -0.38123
C         69.73747        36.91620        -0.06160
C         68.54009        37.61398         0.27826
C         69.63494        39.75670        -0.38418
C         68.68084        39.08844         0.61922
C         69.61645        41.29661        -0.25007
C         68.40164        42.00584         0.31786
C         69.67009        44.22861         0.23001
C         68.44440        43.47525         0.52170
C         69.71890        45.58344         0.91552
C         68.50129        46.37225         0.40825
C         69.68051        48.48329         1.24131
C         68.42292        47.80590         0.88594
C         69.70497        49.98895         1.29473
C         68.42016        50.70715         1.02114
C         69.74204        52.83884         0.72415
C         68.44793        52.15365         0.74371
C         69.74816        54.38315         0.70446
C         68.45188        55.06302         0.74740
C         69.58718        57.17830         1.22751
C         68.40228        56.45953         0.84002
C         69.52241        58.58160         1.35785
C         68.42612        59.27818         0.80173
C         69.53500        61.45395         1.48323
C         68.52402        60.75239         0.67036
C         69.45163        62.95865         1.46608
C         67.99607        63.35247         1.57269
C         69.18383        66.00327         2.21779
C         67.81789        65.53374         1.93737
C         69.38004        67.38843         2.31467
C         67.70191        68.40545         1.22314
C         68.72588        70.64969         1.51469
C         67.94288        69.68312         0.70394
C         68.12251        71.91072         1.69773
C         72.05407        31.20242        -0.87280
C         70.87383        30.49494        -0.61094
C         72.05740        32.59462        -0.82102
C         70.88983        33.31833        -0.51635
C         72.13658        35.50001        -0.39756
C         70.91480        34.78105        -0.38943
C         72.16200        36.88567        -0.32228
C         70.97751        37.63327        -0.17404
C         72.11762        39.84736        -0.08530
C         70.98397        39.08908        -0.18686
C         72.08127        41.28223        -0.10223
C         70.92941        42.01283        -0.21658
C         72.18966        44.24766         0.12104
C         70.95986        43.49927        -0.14286
C         72.17690        45.61489         0.38037
C         71.01501        46.33441         0.69028
C         72.22333        48.59625         0.97282
C         71.02375        47.74236         1.10414
C         72.20005        49.95106         1.10176
C         70.98870        50.72844         1.21531
C         72.15462        52.94465         1.26826
C         70.98422        52.12765         1.11589
C         72.13214        54.32311         1.33256
C         70.94021        55.10540         1.18765
C         71.99204        57.30306         1.80099
C         70.83615        56.48148         1.46062
C         71.89159        58.62240         2.08564
C         70.53625        59.26729         2.25250
C         71.38853        61.55010         3.02099
C         70.50839        60.78740         2.19921
C         71.30190        62.94823         3.11644
C         70.34631        63.69316         2.42095
C         71.59734        65.79995         2.51224
C         70.33703        65.15418         2.40759
C         71.76884        67.17130         2.34655
C         70.63842        68.00525         2.24391
C         70.46627        71.38614         3.07124
C         69.92652        70.39684         2.23137
C         69.83135        72.61428         3.24619
C         68.65828        72.88381         2.53914
O         67.42443        49.96952        -1.00021
O         66.25667        54.69136         1.73594
O         68.54790        41.78724        -1.13143
O         63.52921        52.24729        -1.97776
O         60.08201        45.73853         1.17775
O         43.96673        54.86455        -0.75811
O         64.93989        44.82974        -1.11327
O         60.73511        52.17889        -2.62099
O         64.92865        63.58054        -2.00298
O         59.54243        59.23885         0.16395
O         67.58472        64.27521         2.52634
O         39.65361        51.11788         2.26765
O         70.84819        69.34342         2.02155
O         62.10944        60.94502        -2.96347
O         62.08765        49.57738         1.36850
O         68.80285        50.42134         2.39643
O         70.10588        44.18073        -1.14449
O         54.38972        52.45206        -3.19877
O         59.84795        48.31116         1.02646
O         55.54912        61.51835        -0.04548
O         58.85348        41.89620         1.19259
O         64.93562        59.12554         0.95335
O         51.99235        57.09810        -2.89523
O         49.58327        53.53391        -3.05670
O         68.23137        68.17018         2.50004
O         64.22960        37.55300        -0.59325
O         51.41276        47.47360         0.88740
O         68.51530        61.26071        -0.75943
O         41.47997        52.92487         4.74897
O         55.52315        41.53130        -2.27076
O         51.19381        51.16482        -3.06605
O         56.75063        58.93888         0.36358
O         69.96075        53.60575        -0.52031
O         65.11439        64.20034         1.46860
O         70.34422        47.91126         2.42565
O         59.39326        43.68365        -1.89992
O         64.42025        59.74285        -2.50669
O         62.23361        58.03318         0.09219
O         57.80557        60.59972        -2.93289
O         65.37629        39.49557         2.13450
O         49.31321        49.47856        -2.79509
H         49.64880        50.14825        -3.43942
O         69.57947        45.32425         2.32909
H         69.73758        46.18402         2.79518
O         69.21200        39.41799        -1.71868
H         68.67449        40.17405        -2.05413
O         69.87126        63.42361         0.13252
H         69.53081        62.75957        -0.52306
O         52.46065        58.23626         0.55595
H         52.63104        59.07843         1.02918
O         69.39467        39.16530         1.90175
H         68.79228        38.84870         2.60738
O         56.27592        50.45893        -3.35585
H         55.57557        51.05730        -3.72122
O         52.94097        41.97903        -2.42358
H         53.73309        42.02382        -3.00816
O         57.25155        54.49113        -3.15348
H         57.85656        53.90280        -3.65231
O         68.71170        46.52365        -1.02734
H         67.98116        47.06514        -1.39831
O         65.89198        50.60863         2.23581
H         65.06234        51.02969         2.54420
O         70.10993        58.95817         3.62455
H         70.06879        57.98179         3.71020
O         59.18807        47.65030        -2.51304
H         58.45945        47.34775        -3.09573
O         68.14611        34.80535        -1.84882
H         68.08375        35.74886        -2.11397
O         53.39132        60.77027        -2.98274
H         52.60520        60.21404        -3.17179
O         47.00018        56.98335        -3.00565
H         46.99008        56.01331        -3.15358
O         61.30445        56.49757        -2.96614
H         60.65410        55.88239        -3.36751
O         56.32036        54.51918         0.37243
H         55.76557        55.13551         0.89527
O         67.63684        41.52399         2.50964
H         66.93345        41.10334         3.04935
O         45.58539        46.32968        -1.09195
H         44.75229        46.84648        -1.11541
H         38.65992        49.63238         4.48495
H         37.14232        51.01414         5.84357
H         39.20344        54.65347         4.77454
H         37.27949        53.50702         5.79458
H         40.01427        48.57581         3.41067
H         40.78414        55.51032         3.85159
H         41.92744        47.28796         2.66243
H         42.34378        56.56114         2.29696
H         45.33306        44.98148         1.51979
H         43.58946        46.36110         2.47597
H         45.51668        58.44664        -0.04790
H         43.79974        57.44139         1.35055
H         46.57274        43.89512         0.27768
H         46.61313        59.30021        -1.57811
H         48.64980        42.59762         0.08559
H         48.73726        60.44407        -1.37695
H         52.38358        40.40835         0.08326
H         50.42150        41.73953         0.64494
H         52.46187        62.46269        -0.63302
H         50.34528        61.23697        -0.48226
H         53.85707        39.28706        -0.57530
H         54.09780        63.39783        -2.29280
H         55.92263        38.12182        -0.16116
H         56.21781        64.55418        -2.52451
H         59.66656        35.97214         0.52545
H         57.60405        37.15448         0.04702
H         59.98795        66.69761        -1.89201
H         57.89054        65.50618        -2.11782
H         61.37921        35.02669         0.69718
H         61.68903        67.62959        -2.10738
H         63.47462        33.82110         0.71845
H         63.74492        68.85023        -1.62493
H         67.27862        31.61327         0.61081
H         65.19196        32.82916         0.91461
H         67.36980        71.04156        -0.90388
H         65.58953        69.56397        -1.75266
H         68.78114        30.61525        -0.14708
H         67.18446        72.12167         1.16470
H         72.97821        30.66142        -1.11834
H         70.86873        29.39702        -0.65091
H         72.99612        33.12397        -1.03210
H         73.09013        34.96524        -0.49905
H         73.12949        37.40135        -0.39648
H         73.09964        39.37167         0.04757
H         73.04661        41.79949        -0.01271
H         73.16060        43.73445         0.08916
H         73.14842        46.13143         0.42194
H         73.18632        48.10450         0.77227
H         73.15206        50.49251         1.00358
H         73.11797        52.44561         1.44742
H         73.07772        54.83915         1.55352
H         72.98786        56.83693         1.77187
H         72.79559        59.20618         2.31510
H         72.14093        61.02354         3.62418
H         71.99677        63.46178         3.79757
H         72.49526        65.17708         2.62354
H         72.77587        67.60690         2.32728
H         71.41079        71.17477         3.59031
H         70.26442        73.36748         3.91795
H         68.15058        73.85096         2.65154
