         621
 CSIRO Nanostructure Databank - Neutral Graphene Oxide Data Set
C          6.08343        31.74279        -0.00469
C          6.22354        33.05158         0.34890
C          8.29096        27.41312        -1.09313
C          8.23563        28.78739        -1.11850
C          7.11138        29.57641        -0.68669
C          8.52735        31.55926        -0.27545
C          7.22709        30.92877        -0.35394
C          8.69195        32.87381         0.12956
C          7.52729        33.68428         0.43434
C          9.05723        35.63842         0.95401
C          7.70499        34.98633         0.81355
C          8.97969        37.06425         0.48617
C         10.81917        23.15100        -1.01653
C         10.78992        24.58407        -1.17447
C          9.56393        25.28605        -1.13194
C         10.70495        27.34704        -1.76529
C          9.51132        26.66970        -1.35205
C         10.68420        28.78234        -1.82619
C          9.42608        29.58483        -1.58304
C         10.96477        31.43102        -0.80162
C          9.70545        30.65933        -0.53335
C         11.10982        32.56972        -0.06606
C         10.02525        33.49010         0.22941
C         11.59322        35.62354         0.35837
C         10.22442        34.85370         0.36914
C         11.43653        37.16377         0.10730
C         10.08848        37.80268         0.15493
C         10.99893        40.03299        -0.56337
C          9.95593        39.20158        -0.10051
C         10.85249        41.43365        -0.40712
C         13.07976        18.78010        -0.78160
C         13.16868        20.23618        -0.93346
C         12.01662        20.98350        -0.99512
C         13.27666        23.14020        -1.15493
C         11.98590        22.42248        -1.09792
C         13.29557        24.63817        -1.34358
C         11.98676        25.29827        -1.46593
C         13.13753        27.25820        -2.51566
C         11.94353        26.64363        -1.85965
C         12.95700        28.78459        -2.75259
C         11.84904        29.46529        -2.08391
C         13.22632        31.67832        -2.15638
C         11.98103        30.91319        -1.75577
C         13.56211        33.04443        -1.69463
C         12.93313        33.70249        -0.64166
C         13.65016        35.88045        -1.30491
C         12.70426        35.08801        -0.57544
C         13.63972        37.29733        -1.25180
C         12.51111        37.98239        -0.57724
C         13.14305        39.99399        -1.83414
C         12.21658        39.37143        -1.03669
C         13.04486        42.14526        -1.31690
C         11.92398        42.38783        -0.47603
C         13.20074        44.20303         0.56692
C         11.97545        43.53263         0.36094
C         13.33978        45.36944         1.39226
C         15.72379        14.95096         1.05478
C         15.63532        16.32794         0.67381
C         14.38320        16.75249         0.15515
C         15.84661        19.32253         0.13558
C         13.99633        18.11334         0.01258
C         15.79236        20.43731        -0.68370
C         14.50617        20.84582        -1.39196
C         15.77726        23.12269        -1.68993
C         14.48800        22.37288        -1.57416
C         15.83147        24.62677        -1.42442
C         14.52836        25.32329        -1.82145
C         15.78623        27.22536        -2.70493
C         14.48857        26.56377        -2.41740
C         15.91958        28.51398        -3.25734
C         14.05318        29.65238        -3.19650
C         15.60360        31.57096        -3.41823
C         14.31346        30.93410        -2.85290
C         15.64595        33.08958        -3.19069
C         14.49236        33.83603        -2.48220
C         15.75267        35.95966        -2.63529
C         14.65584        35.23843        -2.08941
C         15.74813        37.38282        -2.53536
C         14.63242        38.01671        -1.95251
C         15.46503        40.19801        -2.67964
C         14.44740        39.44733        -2.14978
C         15.53348        42.23576        -1.70952
C         14.31426        42.70704        -1.05501
C         15.69227        44.05894         0.47478
C         14.37864        43.66126        -0.02544
C         15.80432        45.36115         1.14189
C         14.57515        45.98651         1.61235
C         15.88089        47.87241         2.51291
C         14.65967        47.23974         2.29351
C         15.98689        49.12792         3.16346
C         18.09958        10.98340         2.82277
C         18.09306        12.26109         2.10072
C         16.93570        12.98061         1.98583
C         18.11914        15.10513         1.53469
C         16.90286        14.34521         1.46871
C         18.10491        16.48399         1.11311
C         16.87531        17.10727         0.67926
C         18.18172        18.95237        -0.42347
C         16.96119        18.45120         0.20567
C         18.26646        20.36123        -0.84240
C         17.04179        21.04733        -1.07479
C         18.28712        23.07377        -1.66264
C         17.06359        22.39460        -1.50508
C         18.26001        24.48338        -2.06212
C         17.08656        25.20834        -2.03853
C         18.23655        27.34994        -2.52105
C         17.03829        26.60739        -2.39876
C         18.23407        28.76355        -2.64646
C         17.00785        29.37465        -2.98466
C         18.13658        31.65189        -2.72230
C         16.86088        30.85725        -2.89666
C         18.13196        33.11459        -2.98170
C         16.93218        33.81341        -3.14781
C         18.15529        35.97618        -3.31751
C         16.88535        35.24493        -3.14215
C         18.13213        37.49838        -3.36250
C         16.75700        38.17646        -3.36216
C         18.05403        40.41145        -2.51577
C         16.80213        39.66451        -2.97841
C         18.04393        41.71811        -1.69934
C         16.81306        42.39640        -1.21456
C         18.17752        44.16038         0.04649
C         16.93408        43.38642        -0.08529
C         18.25620        45.35683         0.75628
C         17.04942        45.92807         1.33691
C         18.41973        47.93232         2.12485
C         17.13065        47.16350         2.13828
C         18.32515        49.40273         2.35467
C         17.18248        49.87186         3.18354
C         18.56152        51.77768         3.98512
C         17.36608        51.00572         3.98211
C         18.69868        52.79176         4.91876
C         20.75273         6.83194         3.63374
C         20.67511         8.16194         3.27576
C         19.23902         8.71783         3.34527
C         20.86009        10.94715         1.98391
C         18.97328         9.97724         2.57097
C         20.68400        12.29851         1.91445
C         19.35487        12.89443         1.47350
C         20.41906        15.00177         2.40363
C         19.31884        14.37256         1.81776
C         20.40653        17.08456         1.92773
C         19.31654        17.24840         1.02651
C         20.79890        18.95212        -0.18280
C         19.49019        18.23094        -0.02212
C         20.80458        20.36160        -0.73016
C         19.50015        21.03223        -1.01704
C         20.81778        23.01582        -1.73693
C         19.50647        22.37719        -1.43609
C         20.82913        24.42539        -2.27083
C         19.51963        25.13150        -2.50589
C         20.76029        27.41516        -2.52821
C         19.51262        26.63797        -2.62814
C         20.73749        28.80809        -2.57239
C         19.47000        29.53466        -2.61083
C         20.66330        31.70674        -2.64127
C         19.43546        30.92827        -2.67145
C         20.64713        33.12012        -2.70252
C         19.35026        33.86733        -2.50399
C         20.59672        36.00781        -3.00908
C         19.40043        35.29381        -2.97471
C         20.58796        37.45717        -2.96315
C         19.33920        38.21849        -2.89053
C         20.56611        40.25872        -2.27184
C         19.28794        39.54342        -2.47186
C         20.55225        41.66192        -1.74291
C         19.25861        42.25503        -1.30869
C         20.69423        44.17585        -0.26339
C         19.37948        43.44448        -0.40968
C         20.70355        45.58411         0.21326
C         19.51284        46.12560         0.79778
C         20.76406        48.20908         1.34449
C         19.56518        47.42490         1.34154
C         20.82134        49.53247         1.89862
C         19.55422        50.24820         2.20286
C         20.92137        52.34597         2.99396
C         19.50780        51.68392         2.78378
C         21.04379        53.18033         4.26976
C         19.90681        53.55063         5.06595
C         21.27219        55.17725         6.31359
C         20.03818        54.50936         6.07846
C         21.42964        56.17087         7.30548
C         23.25888         4.12334         4.25620
C         22.04072         4.76221         4.09198
C         23.20452         6.88424         3.69422
C         21.99534         6.14704         3.79731
C         23.16373         8.31102         3.47543
C         21.90866         8.91600         3.11709
C         23.05295        11.06451         3.05454
C         21.95681        10.27754         2.66977
C         22.94805        12.52704         2.92733
C         21.95008        13.12939         1.96692
C         22.92643        15.40375         2.39881
C         21.77344        14.58814         2.32696
C         22.79917        16.95223         2.63205
C         21.70070        17.50883         1.73168
C         23.17379        19.34785         0.79371
C         21.97087        18.45633         0.63237
C         23.15158        20.71076         0.18121
C         22.01096        21.21015        -0.50109
C         23.23590        23.26402        -1.13967
C         22.04346        22.50439        -1.07830
C         23.23975        24.59788        -1.73694
C         22.07198        25.22217        -2.15083
C         23.29810        27.48911        -2.47541
C         22.02171        26.65682        -2.58377
C         23.18556        28.93313        -2.25680
C         21.96539        29.57643        -2.44074
C         23.09193        31.79522        -2.32298
C         21.90847        31.03159        -2.45635
C         23.10142        33.18756        -2.56961
C         21.85661        33.86458        -2.75552
C         23.08094        36.00133        -2.99840
C         21.85064        35.29591        -2.90189
C         23.07084        37.43865        -2.91604
C         21.82128        38.10216        -2.78349
C         23.12456        40.09094        -1.86142
C         21.81579        39.44394        -2.18398
C         23.11075        41.51897        -1.43372
C         21.84274        42.28452        -1.33172
C         23.17203        44.30289        -0.79621
C         21.88114        43.58711        -0.92372
C         23.16841        45.68882        -0.22500
C         21.89978        46.31284         0.24588
C         23.22111        48.24004         1.13768
C         21.96849        47.60046         0.86953
C         23.28491        49.50475         1.74394
C         22.06096        50.17177         2.11147
C         23.38056        52.00622         3.05440
C         22.13573        51.43847         2.79330
C         23.53797        53.06871         4.10803
C         22.27554        53.73774         4.56789
C         23.65270        55.44698         5.71960
C         22.41282        54.78458         5.53646
C         23.80753        56.42057         6.72013
C         22.67995        56.78052         7.53610
C         24.09760        58.37377         8.72933
C         22.86072        57.77569         8.54162
C         24.46021         4.83846         4.09758
C         25.71029         6.93632         3.49363
C         24.43956         6.20262         3.82170
C         25.65911         8.42994         3.77829
C         24.35330         9.08826         3.69555
C         25.22752        11.42643         4.09266
C         24.19819        10.51391         3.68677
C         25.38893        12.72107         3.58556
C         24.14585        13.40146         3.19599
C         25.47881        15.21565         2.27633
C         24.17960        14.72203         2.53068
C         25.24322        17.39447         3.40512
C         24.07665        17.78752         2.54729
C         25.34714        19.83335         2.01880
C         24.14567        18.97123         1.86588
C         25.42011        21.08747         1.14243
C         24.31774        21.49157         0.23015
C         25.67368        23.37761        -0.61755
C         24.42765        22.71346        -0.52725
C         25.79783        24.66899        -1.32402
C         24.55440        25.28585        -1.91792
C         25.76018        27.56160        -1.70841
C         24.58173        26.77341        -2.17260
C         25.62559        29.01826        -1.39616
C         24.24360        29.67399        -1.47070
C         25.64474        31.91067        -1.98835
C         24.32495        31.16510        -1.81048
C         25.60936        33.26019        -2.58315
C         24.34685        33.91606        -2.67868
C         25.55876        35.98722        -3.37394
C         24.31761        35.29178        -2.98821
C         25.50882        37.52547        -3.40357
C         24.30303        38.17694        -2.86910
C         25.59065        40.27412        -2.46613
C         24.37715        39.49831        -2.39460
C         25.60242        41.64114        -2.11471
C         24.41690        42.26378        -1.50252
C         25.38806        44.40009        -2.06164
C         24.31851        43.71932        -1.54462
C         25.44439        46.36417        -1.11982
C         24.37547        46.55686        -0.29339
C         25.80930        48.25498         0.91730
C         24.47307        47.53353         0.80091
C         25.74737        49.64285         1.37868
C         24.55743        50.20602         1.85277
C         25.81670        52.23447         2.60979
C         24.59356        51.49510         2.49268
C         25.91490        53.43632         3.32736
C         24.67944        54.02184         3.86224
C         26.11684        55.72679         5.10664
C         24.77362        55.20058         4.78899
C         26.21828        56.66767         6.13798
C         25.08884        57.05602         6.92225
C         25.20471        58.02291         7.93794
C         26.90701         9.02334         3.83444
C         28.08559        11.28305         3.62477
C         27.15049        10.41648         4.12430
C         27.95362        12.74695         3.62468
C         26.63651        13.42139         3.52327
C         27.80334        15.62851         3.41116
C         26.61775        14.74163         3.00119
C         27.80239        17.11015         3.02082
C         26.58742        17.86482         2.91536
C         27.87666        19.89118         2.40110
C         26.60083        19.17410         2.43849
C         27.94692        21.18282         1.60997
C         26.78551        21.53297         0.75459
C         28.21946        23.42148        -0.23743
C         26.90259        22.70418        -0.19816
C         28.25945        24.85358        -0.69145
C         26.98649        25.52171        -1.03647
C         28.19736        27.67061        -1.17265
C         26.97364        26.87973        -1.19728
C         28.18503        29.02032        -1.54466
C         26.92068        29.78169        -1.49413
C         28.11107        31.76310        -2.35566
C         26.92308        31.17647        -1.94808
C         28.07795        33.14291        -2.91148
C         26.82529        33.92742        -2.88971
C         28.11167        36.03415        -3.23990
C         26.86352        35.30019        -3.23791
C         28.13171        37.51796        -3.41189
C         26.79556        38.29170        -3.44531
C         28.03195        40.36520        -2.92878
C         26.82051        39.67702        -2.96135
C         28.05474        41.74681        -2.38970
C         26.77224        42.45770        -2.24781
C         27.91527        44.77578        -2.14780
C         26.70996        43.85233        -2.15457
C         27.97172        46.14113        -1.48254
C         26.80614        46.79423        -0.87870
C         28.10964        48.67259        -0.01714
C         26.91950        47.84385         0.02845
C         28.27598        49.68416         1.10265
C         26.96303        50.44528         1.22703
C         28.33629        52.40197         2.16739
C         27.01388        51.80057         1.87648
C         28.36250        53.54664         2.96121
C         27.16888        54.10631         3.52910
C         27.23464        55.22487         4.39785
C         29.08600        13.47102         3.33490
C         30.31643        15.67501         3.20887
C         29.06144        14.91682         2.91216
C         30.32266        17.04790         3.06922
C         29.05684        17.76636         2.86760
C         30.38087        19.83217         2.41589
C         29.13003        19.15643         2.60037
C         30.45004        21.13104         1.86939
C         29.27455        21.73289         1.28174
C         30.50563        23.79902         0.89726
C         29.34130        22.91376         0.57630
C         30.57801        25.09465         0.13994
C         29.44613        25.68489        -0.36154
C         30.59862        27.85224        -0.73187
C         29.42838        27.07049        -0.76837
C         30.64611        29.12178        -1.35687
C         29.40313        29.73972        -1.74424
C         30.65478        31.79692        -2.28413
C         29.35895        31.06975        -2.21402
C         30.65257        33.24933        -2.59470
C         29.37897        33.91762        -3.01561
C         30.56549        36.10845        -2.63309
C         29.32126        35.38504        -2.99679
C         30.58909        37.63585        -2.71894
C         29.33762        38.30840        -3.11764
C         30.56180        40.48171        -3.22554
C         29.29288        39.69251        -3.12491
C         30.56426        41.93734        -2.86205
C         29.29998        42.55036        -2.34441
C         30.51797        44.69387        -1.88351
C         29.25178        44.05708        -2.30426
C         30.49218        46.01394        -1.43082
C         29.23542        46.71908        -1.24943
C         30.61513        48.70312        -0.28009
C         29.32875        48.09312        -0.70333
C         30.63360        49.97087         0.36466
C         29.48665        50.57430         0.92675
C         29.49981        51.82196         1.57442
C         31.55241        17.78295         3.07934
C         32.87404        19.79064         2.52969
C         31.62384        19.13047         2.70775
C         32.97573        21.08764         1.98641
C         31.73452        21.77197         1.63865
C         33.06143        23.65184         0.71850
C         31.78105        23.02471         1.06059
C         33.08018        25.15005         0.41297
C         31.78634        25.89713         0.40106
C         33.08549        28.06853        -0.21654
C         31.79208        27.34255        -0.04024
C         33.10705        29.19127        -1.16827
C         31.91662        29.74423        -1.61737
C         33.21512        31.71082        -2.65298
C         31.88033        30.93210        -2.57441
C         33.20873        33.21823        -2.76305
C         31.92690        33.97509        -2.89364
C         33.03503        36.16980        -2.50050
C         31.87466        35.44011        -2.65025
C         33.04708        37.60747        -2.67376
C         31.88134        38.31556        -2.87653
C         33.08822        40.52558        -2.83229
C         31.90270        39.74417        -3.40261
C         33.04053        41.86513        -2.45231
C         31.80908        42.61729        -2.43567
C         32.98389        44.60513        -1.59810
C         31.75153        43.93929        -1.97344
C         32.94455        45.95287        -1.17310
C         31.74465        46.66401        -1.06366
C         31.77960        47.98644        -0.53818
C         34.21779        21.74401         1.77854
C         35.51431        23.73541         0.97541
C         34.31802        23.02945         1.18003
C         35.55974        25.11244         0.54869
C         34.35548        25.85998         0.47599
C         35.65244        27.80317        -0.33918
C         34.39555        27.28726         0.15690
C         35.68176        29.04758        -1.12606
C         34.42826        29.68453        -1.64404
C         35.78925        31.84617        -2.13267
C         34.50892        31.04853        -2.28273
C         35.68677        33.29830        -2.01556
C         34.36771        33.95573        -2.15427
C         35.56161        36.20535        -2.02708
C         34.28901        35.46325        -2.10958
C         35.57436        37.59417        -2.25593
C         34.37339        38.27655        -2.77226
C         35.58236        40.49308        -2.29694
C         34.37882        39.81802        -2.82544
C         35.49020        41.86900        -1.99327
C         34.26473        42.55157        -2.04221
C         34.19944        43.90787        -1.65548
C         36.81063        25.76788         0.27731
C         38.06301        27.88723        -0.64547
C         36.84401        27.07619        -0.23889
C         37.97732        29.27621        -0.05164
C         37.05932        29.67809        -1.17635
C         37.98319        32.03683        -0.82908
C         37.09157        31.14393        -1.56709
C         37.95575        33.41274        -1.06941
C         36.79893        34.06080        -1.65018
C         37.92806        36.26576        -1.39415
C         36.74622        35.51163        -1.67824
C         37.92537        37.65470        -1.57399
C         36.77209        38.33906        -2.02736
C         36.74961        39.76692        -2.05661
C         38.90595        30.07484         0.49643
C         40.07326        32.30367         0.49948
C         38.75484        31.57226         0.40239
C         40.18315        33.56915         0.04990
C         39.05988        34.23694        -0.59980
C         39.07615        35.58873        -0.84786
O         12.85974        41.26213        -2.38277
O         18.33402        36.74747        -4.59063
O         27.75773        21.23467         3.04762
O         18.08729        47.09849         3.27173
O         34.05742        31.08256        -3.67319
O         24.36920        55.34712         3.36973
O         25.37527        47.24613         1.89965
O         22.40143        39.31140        -0.83362
O         25.58673        27.23573        -3.13413
O         34.00953        34.64554        -0.90228
O         14.57352        33.68689        -3.95503
O         21.11037        19.19757        -1.57568
O         12.66637        27.79277        -3.79001
O         17.55462        40.51025        -3.88945
O         20.64676        41.39954        -3.20735
O         23.51525        44.51759         0.63053
O         28.61134        44.70934        -3.44345
O         23.95399        41.66956        -0.24082
O         12.38504        32.92136         0.36170
O         16.37180        42.94669         1.19271
O         15.31097        41.56238        -2.91644
O         36.89908        31.40810        -2.97145
O         11.98274        31.73903        -3.00920
O         25.22849        45.74948        -2.35648
O         19.48258        25.74189        -3.82677
O         35.14402        28.70926        -2.47392
O         15.00152        22.77475        -2.89268
O         25.32049        36.75242        -4.61433
O         30.72665        32.78531        -1.19404
O         20.99198        23.27403        -3.17127
O         30.46830        41.53531        -4.26765
O         34.61712        38.99546        -4.01455
O         12.44832        37.87521         0.90668
O         28.46479        48.97140         2.30061
O         28.46602        49.08649        -1.36175
O         25.09131        21.18091         2.55710
O         28.61736        23.75941        -1.61387
O         26.26947        29.45547        -0.17028
O         19.83834        10.12117         1.46769
O         26.18355        10.96574         4.99139
O         18.56922        50.11973         1.09422
O         14.71592        18.98481         0.86768
O         26.79245        51.63852         0.41794
O         23.15338        18.22764        -0.18201
O         28.78782        33.28295        -4.19059
O         33.09151        24.14166        -0.66774
O         30.40633        36.95190        -1.42900
O         31.58559        26.96365         1.36576
O         25.15801        16.75296         4.44800
O         20.13912        16.24086         3.02721
O         14.91129        29.00172        -4.07576
O         23.06350        13.23796         4.18980
O         22.80246        27.01440        -3.76837
O         37.81262        28.58310        -1.95718
O         17.24035        31.30956        -1.55637
O         24.90974        31.90051        -0.69292
O         33.75214        28.28743         1.05257
O         32.72606        33.64495        -4.07777
O         25.47658        24.54975        -2.76845
O         18.83199        17.95349        -1.27207
O         13.48689        24.01551         0.00853
O         28.85775        41.88960        -1.11994
O         27.03122        21.29745        -0.65611
O         20.24245        43.21581         0.76694
O         27.53164        38.01313        -4.65812
O         22.41852        17.09092         4.01345
H         21.54902        16.64179         4.13819
O         14.66894        20.25648        -2.70948
H         15.04123        20.95952        -3.29662
O          9.96242        29.91675         0.70430
H         10.08465        30.56460         1.43040
O         28.90514        14.90164         1.44161
H         29.72306        14.52002         1.05741
O         23.72195        29.61216        -0.11087
H         24.35761        30.12815         0.44009
O         32.11541        39.62014        -4.83004
H         31.82258        40.46825        -5.23608
O         30.19686        24.28899         2.27438
H         30.13035        23.50571         2.86409
O          9.34858        35.70605         2.39995
H         10.33441        35.72750         2.49377
O         31.61844        30.39288        -3.88528
H         32.49209        30.20107        -4.30234
O         37.94945        31.97759         1.55857
H         37.93171        32.95811         1.58003
O         25.66168        16.10666         1.26962
H         26.61961        16.22870         1.09843
O         12.07073        35.49250         1.72288
H         12.66595        36.26628         1.88006
O         16.00833        24.82479         0.00565
H         15.15004        24.58107         0.43695
O         18.81453        52.50434         1.80749
H         18.32806        51.87982         1.21191
O         19.19031        33.95625        -1.03040
H         19.00269        33.05003        -0.70062
O         18.89449         8.91111         4.72524
H         19.54122         9.52639         5.12764
O          9.06621        30.22261        -2.82928
H          9.86248        30.66837        -3.19253
O         23.99913        52.31154         5.28946
H         23.32393        51.63295         5.50314
O         22.55142        13.02248         0.64292
H         21.87999        13.30360        -0.01567
O         19.24740        12.74511         0.03250
H         19.19641        11.78174        -0.15003
O         26.83685         6.33315         4.13463
H         26.72359         6.42182         5.10306
O         27.79332        15.60693         4.85483
H         26.92664        15.98729         5.13902
O         16.23426        38.16266        -4.70815
H         16.78102        37.52268        -5.22457
O         15.62678        31.40462        -4.84478
H         14.89659        31.94703        -5.21589
O         21.12261        53.31530         1.93281
H         20.23818        53.47352         1.51734
H          5.08259        31.28802        -0.04860
H          5.33770        33.65600         0.59399
H          7.41739        26.84113        -0.74208
H          6.12826        29.08899        -0.58854
H          6.83123        35.59950         1.08341
H          8.00210        37.56917         0.53308
H          9.86043        22.62397        -0.89911
H          8.64434        24.74066        -0.87298
H          8.98660        39.66500         0.14083
H          9.93550        41.76517         0.10753
H         12.27684        18.23839        -1.30519
H         11.05129        20.47803        -0.83489
H         11.08620        43.83163         0.93384
H         12.43237        45.82795         1.81160
H         14.79924        14.35380         1.03693
H         13.66938        15.96683        -0.13963
H         13.72928        47.73324         2.61144
H         15.09630        49.54562         3.65659
H         17.36465        10.85675         3.63246
H         15.98410        12.53963         2.32208
H         16.57591        51.27750         4.69905
H         17.88804        52.95806         5.64514
H         19.82396         6.26807         3.80886
H         18.55558         7.91147         2.96406
H         19.16804        54.74987         6.70727
H         20.56180        56.47463         7.90969
H         23.29206         3.04908         4.48442
H         21.09964         4.20177         4.18458
H         24.21867        59.13700         9.51092
H         22.00537        58.06579         9.16862
H         25.42715         4.32254         4.18037
H         25.88146         6.81164         2.38459
H         27.19984        57.10592         6.37542
H         26.17461        58.51109         8.11079
H         27.77279         8.36728         3.64434
H         28.94072        10.87354         3.06566
H         29.32507        54.03187         3.18300
H         28.22297        55.66295         4.60595
H         30.04425        12.93637         3.23183
H         31.25905        15.12952         3.36840
H         31.61090        50.46790         0.48328
H         30.44558        52.38537         1.63476
H         32.48381        17.22908         3.27058
H         33.79433        19.24040         2.77753
H         33.88639        46.44741        -0.89249
H         32.75478        48.40856        -0.25181
H         35.14062        21.23345         2.09338
H         36.46970        23.23966         1.20501
H         36.38746        42.40318        -1.64684
H         35.12736        44.42334        -1.36638
H         37.74364        25.19403         0.37870
H         39.03059        27.33896        -0.62314
H         38.83133        38.23196        -1.33733
H         37.64943        40.30719        -1.72597
H         39.74969        29.66084         1.06910
H         40.91112        31.81662         1.02037
H         41.11641        34.13658         0.18435
H         39.95678        36.18694        -0.56970
