         598
 CSIRO Nanostructure Databank - Neutral Graphene Oxide Data Set
C         22.88852        69.88285         1.52519
C         23.02791        71.29919         1.72392
C         21.83864        72.07023         1.73279
C         23.05558        74.16293         1.80708
C         21.85442        73.46599         1.81587
C         25.47485        65.61211         1.20269
C         25.43340        67.02582         1.41279
C         24.14232        67.64677         1.36311
C         25.71067        69.98786         1.83370
C         23.89265        68.94907         1.82985
C         25.54472        71.37626         1.56096
C         24.28864        72.01768         1.72683
C         25.50147        74.17639         1.58318
C         24.28911        73.46079         1.70733
C         27.80489        61.28694         0.36471
C         27.85638        62.69486         0.64918
C         26.65584        63.45535         0.88517
C         27.94249        65.54394         1.27092
C         26.65216        64.83888         1.12140
C         27.95786        67.05141         1.24298
C         26.67174        67.78024         1.38939
C         27.80378        69.92855         0.52884
C         26.74719        69.18794         1.33888
C         27.91355        71.39569         0.88081
C         26.73541        72.09782         1.22391
C         27.95979        74.21961         1.17042
C         26.73633        73.53145         1.32355
C         30.11537        57.02607        -0.54567
C         30.11238        58.42765        -0.50241
C         28.92064        59.15574        -0.24066
C         30.27895        61.18401         0.10047
C         28.94571        60.53799         0.04743
C         30.35659        62.66496         0.35445
C         29.08899        63.36625         0.57531
C         30.33058        65.51335         0.28298
C         29.18611        64.78927         0.91292
C         30.27399        66.97889         0.06881
C         29.16831        67.77279         0.70617
C         30.29689        69.93028         0.26689
C         29.13376        69.23961         0.45979
C         30.34888        71.38461         0.41451
C         29.12804        72.08965         0.72134
C         30.40934        74.19092         0.85705
C         29.16438        73.52128         0.91731
C         32.62670        52.67230        -0.35064
C         32.56919        54.08736        -0.70953
C         31.34516        54.88754        -0.55895
C         32.56125        57.01581        -0.89579
C         31.32444        56.27518        -0.68582
C         32.56246        58.39218        -1.00941
C         31.36160        59.15257        -0.73938
C         32.62244        61.33400        -0.86287
C         31.42491        60.51994        -0.54196
C         32.77517        62.71707        -0.38734
C         31.59861        63.42561         0.02910
C         32.90778        65.55951         0.19406
C         31.61216        64.79953         0.12687
C         32.83259        66.99741        -0.24138
C         31.54399        67.69788        -0.28332
C         32.85200        69.84567         0.00943
C         31.52641        69.20548        -0.16433
C         32.85168        71.34724         0.26226
C         31.56537        72.06621         0.40032
C         32.87149        74.13890         0.72960
C         31.61830        73.48967         0.64390
C         35.07151        48.46750         0.51629
C         34.61197        49.80663         0.71775
C         33.78232        50.55062        -0.08671
C         35.08393        52.76411         0.02607
C         33.81382        52.01667        -0.09129
C         35.13209        54.12251        -0.28201
C         33.90552        54.81772        -0.73154
C         35.13111        57.02810        -0.65556
C         33.83628        56.30078        -0.61889
C         35.12564        58.40413        -1.22610
C         33.82284        59.11488        -1.34549
C         35.17559        61.30431        -1.13972
C         33.87906        60.61414        -1.31544
C         35.21497        62.68993        -0.95927
C         33.99962        63.41534        -0.61181
C         35.27106        65.54033        -0.65833
C         34.06821        64.81620        -0.41447
C         35.25908        66.96067        -0.70935
C         34.02629        67.69914        -0.51484
C         35.20051        69.91968        -0.85727
C         34.02233        69.13175        -0.52109
C         35.22594        71.43363        -0.55860
C         34.06980        72.10160         0.02793
C         35.33739        74.11574         0.61046
C         34.10440        73.47658         0.43766
C         37.85678        44.57737        -0.01552
C         37.72673        45.87121         0.51638
C         36.53522        46.59389         0.40703
C         37.46779        48.65081         1.51487
C         36.31347        47.92149         0.87526
C         37.54504        50.17201         1.53313
C         36.36923        50.99302         1.19273
C         37.65181        52.71861        -0.03632
C         36.34258        52.10981         0.41449
C         37.58102        54.22685         0.08395
C         36.38584        54.88455        -0.17276
C         37.58132        56.97475        -0.78868
C         36.41192        56.29310        -0.55494
C         37.60049        58.31945        -1.49985
C         36.38958        59.16134        -1.20057
C         37.66439        61.26224        -1.32027
C         36.40648        60.54451        -1.21285
C         37.71249        62.65447        -1.21092
C         36.48390        63.40170        -0.98127
C         37.77550        65.53639        -0.77016
C         36.49571        64.79544        -0.84887
C         37.79014        66.98886        -0.93127
C         36.49744        67.68286        -1.06967
C         37.78344        69.89244        -0.77606
C         36.50892        69.21129        -1.08371
C         37.80648        71.27242        -0.41179
C         36.57100        72.09129        -0.44172
C         37.83681        73.82620         0.90209
C         36.59928        73.47093         0.22728
C         40.28769        40.38027        -0.67262
C         40.25610        41.71284        -0.26783
C         39.08996        42.50076        -0.33969
C         40.25443        44.48096         0.63674
C         39.06091        43.84609         0.07017
C         40.18792        45.76061         1.14794
C         38.87518        46.44705         1.24986
C         40.09400        48.64049         1.92616
C         38.78280        47.88535         1.69370
C         40.15843        50.11184         1.58774
C         38.86203        50.87363         1.38374
C         40.11759        52.75395         0.45978
C         38.89094        52.13169         0.62248
C         40.15808        54.27483         0.52399
C         38.82729        54.97874         0.25144
C         40.12298        56.96274        -0.80325
C         38.83722        56.39853        -0.30748
C         40.14158        58.35861        -1.34712
C         38.87379        59.11556        -1.36096
C         40.12251        61.16526        -1.99067
C         38.87599        60.47906        -1.48405
C         40.14587        62.65022        -1.67151
C         38.99987        63.33782        -1.36335
C         40.23823        65.60546        -1.51812
C         39.09149        64.79792        -1.08408
C         40.25173        67.00115        -1.30287
C         38.99182        67.69027        -1.01326
C         40.22621        69.80719        -0.72254
C         38.98489        69.13575        -0.85933
C         40.23733        71.20187        -0.42191
C         39.03186        71.93005        -0.13339
C         40.19841        73.67772         1.36227
C         39.03729        73.18875         0.63235
C         42.53524        36.20106        -2.00308
C         42.18154        37.16801        -1.11120
C         41.28601        38.29148        -1.21632
C         42.53518        39.96732         0.44365
C         41.41002        39.50036        -0.53234
C         42.72974        41.48850         0.35667
C         41.53130        42.36859         0.09283
C         42.65502        44.24707         1.22435
C         41.50647        43.73035         0.65609
C         42.64465        45.60500         1.82483
C         41.30142        46.30504         2.03046
C         42.65406        48.56119         1.58450
C         41.38563        47.86246         1.99691
C         42.61053        49.90570         1.11750
C         41.40095        50.68598         1.02832
C         42.59586        52.71577         0.13841
C         41.35840        52.02787         0.60779
C         42.61390        54.20078        -0.09139
C         41.36036        54.97056        -0.07056
C         42.63001        57.04627        -0.54122
C         41.38965        56.30488        -0.40227
C         42.63894        58.40773        -0.92017
C         41.41501        59.10883        -1.29088
C         42.67063        61.15284        -1.82437
C         41.39842        60.44637        -1.58985
C         42.66862        62.62658        -2.11250
C         41.36857        63.38486        -2.09621
C         42.71138        65.62182        -2.29185
C         41.39290        64.89322        -2.11398
C         42.71434        67.13726        -1.98592
C         41.46382        67.76724        -1.43981
C         42.68714        69.85761        -0.82910
C         41.47080        69.12742        -1.00066
C         42.72547        71.21479        -0.42019
C         41.48212        71.87265        -0.44335
C         42.76161        73.67553         1.42151
C         41.48582        73.57922         0.84114
C         45.03658        33.28522        -1.90738
C         43.87249        33.99993        -2.05885
C         45.11782        36.07014        -1.32382
C         43.84392        35.46168        -1.91224
C         45.14367        37.34958        -0.57282
C         43.98970        37.95116        -0.07367
C         45.12126        39.98132         0.46570
C         43.90744        39.30949         0.27834
C         45.15247        41.29584         1.20332
C         43.90228        42.12729         0.99627
C         45.15007        44.20969         1.57669
C         43.88499        43.47518         1.29029
C         45.17680        45.67070         1.42987
C         43.93799        46.39314         1.76093
C         45.14099        48.52257         1.39865
C         43.88530        47.85734         1.59172
C         45.14923        49.92233         1.18301
C         43.88397        50.53710         0.74443
C         45.08954        52.79763         0.61177
C         43.90618        52.01049         0.33755
C         45.16062        54.19291         0.02305
C         43.86348        54.97075         0.00352
C         45.09994        57.11094        -0.04232
C         43.85411        56.32732        -0.21883
C         45.08074        58.57606        -0.36384
C         43.85994        59.18115        -0.93606
C         45.16314        61.22876        -1.50677
C         43.91269        60.49911        -1.37136
C         45.15428        62.66305        -1.81013
C         43.93530        63.38080        -1.94962
C         45.22708        65.32884        -2.42754
C         43.95039        64.76792        -2.23060
C         45.23158        67.50444        -2.19677
C         43.98243        67.89409        -1.75314
C         45.23516        70.06421        -1.10613
C         43.93077        69.28752        -1.31939
C         45.18756        71.28782        -0.28108
C         43.94725        71.91066        -0.01857
C         45.18029        73.60598         1.27821
C         43.94040        73.08618         0.84351
C         46.26658        33.88404        -1.52661
C         47.54298        35.88425        -0.81908
C         46.33671        35.23634        -1.16828
C         47.60995        37.27595        -0.52377
C         46.37072        38.00762        -0.35642
C         47.61044        40.01748         0.30019
C         46.35835        39.32886         0.17161
C         47.61295        41.41840         0.58470
C         46.41460        42.06334         0.91553
C         47.59119        44.25295         0.70491
C         46.45106        43.46378         1.29976
C         47.61457        45.68115         1.13556
C         46.40826        46.37222         1.31936
C         47.59224        48.56892         1.27002
C         46.39491        47.83303         1.36453
C         47.60005        49.98931         1.30488
C         46.34832        50.65505         1.20399
C         47.60634        52.87177         1.17304
C         46.28574        52.12848         1.12285
C         47.66555        54.20788         0.44144
C         46.33869        54.99661         0.60061
C         47.58372        57.08632        -0.03202
C         46.40556        56.41035         0.04771
C         47.66654        58.53724        -0.33643
C         46.38251        59.29751        -0.55473
C         47.66587        61.17496        -1.66127
C         46.36714        60.57149        -1.29790
C         47.67613        62.65372        -1.89934
C         46.38949        63.36651        -1.77576
C         47.65326        65.55912        -1.62973
C         46.43417        64.75091        -2.00785
C         47.63880        67.08157        -1.41465
C         46.47278        67.99171        -1.66468
C         47.69634        69.87499        -0.68482
C         46.48226        69.27639        -1.12789
C         47.67400        71.21017        -0.16239
C         46.42093        71.83564         0.15144
C         47.66441        73.64878         1.25850
C         46.42174        73.05397         0.89776
C         48.81989        37.94370        -0.26678
C         50.07153        40.01747         0.25911
C         48.84412        39.32062         0.08814
C         50.10486        41.39603         0.54204
C         48.87696        42.13063         0.64569
C         50.13155        44.22284         0.95441
C         48.90686        43.52438         0.82247
C         50.15637        45.65996         1.02633
C         48.87784        46.38851         0.89658
C         50.15096        48.58218         1.18539
C         48.86908        47.88333         0.97718
C         50.14452        49.98634         1.33785
C         48.86838        50.71777         1.32315
C         50.10507        52.89084         1.40247
C         48.86464        52.10008         1.23891
C         50.16802        54.29943         0.96446
C         48.87688        55.02816         0.83365
C         50.14148        57.05395        -0.05452
C         48.85633        56.45072         0.40237
C         50.16639        58.48767        -0.44829
C         48.95167        59.11520        -0.76531
C         50.18010        61.31516        -1.02932
C         48.95878        60.46395        -1.36235
C         50.25292        62.66928        -1.74976
C         48.97125        63.43918        -1.93436
C         50.19288        65.58889        -1.42362
C         48.96958        64.89142        -1.65819
C         50.17265        67.04691        -1.20287
C         48.94536        67.75663        -1.19413
C         50.12821        69.83389        -0.60591
C         48.91185        69.13996        -0.83831
C         50.09208        71.23207        -0.33833
C         48.88891        71.91469         0.05119
C         50.10963        73.81214         1.28847
C         48.89414        73.15913         0.80146
C         51.33327        42.11178         0.70852
C         52.66912        44.17746         1.18903
C         51.35512        43.47628         0.93055
C         52.61981        45.68805         1.07674
C         51.35599        46.38474         1.06844
C         52.59749        48.53942         1.14266
C         51.35955        47.83946         1.11949
C         52.60114        49.94726         1.26676
C         51.39507        50.66693         1.38859
C         52.64294        52.89122         1.19562
C         51.42509        52.14134         1.52895
C         52.63893        54.26545         0.96520
C         51.36691        54.95414         0.82675
C         52.65866        57.09490         0.34267
C         51.41060        56.31846         0.23605
C         52.60457        58.52675         0.01282
C         51.41147        59.10536        -0.64306
C         52.77402        61.21795        -1.26499
C         51.46261        60.49516        -1.16191
C         52.71463        62.72327        -0.92824
C         51.51534        63.44290        -1.56483
C         52.74196        65.65862        -1.53091
C         51.43565        64.91378        -1.40296
C         52.67632        67.06977        -1.00624
C         51.40423        67.74196        -0.95991
C         52.57315        69.88634        -0.44969
C         51.37636        69.15567        -0.69149
C         52.55402        71.29089        -0.33665
C         51.31206        71.91915        -0.46685
C         52.66223        74.09554         1.02601
C         51.32033        73.77951         0.62767
C         53.80570        46.38364         1.03011
C         55.07172        48.49017         0.94404
C         53.85546        47.81846         1.03874
C         55.15894        49.92101         0.95819
C         53.90722        50.65375         1.30609
C         55.10161        52.84282         0.65155
C         53.90951        52.14997         1.21621
C         55.12203        54.31584         0.77709
C         53.87457        55.00912         0.82657
C         55.10636        57.19113         0.67501
C         53.85243        56.44368         0.64303
C         55.14002        58.52518         0.34207
C         53.90896        59.28536         0.00625
C         55.30835        61.25276        -0.86469
C         54.06321        60.38995        -1.03555
C         55.28583        62.77853        -0.98986
C         54.00110        63.50967        -1.08509
C         55.20331        65.64053        -0.82931
C         53.97905        64.88544        -1.05850
C         55.15200        67.05406        -0.70828
C         53.86913        67.72303        -0.70487
C         55.10519        69.92165        -0.20677
C         53.82985        69.13945        -0.29433
C         55.08825        71.41400        -0.30839
C         53.78082        72.15060        -0.24552
C         55.06862        74.06431         0.72928
C         53.79568        73.48111         0.46366
C         56.34497        50.60345         0.78620
C         57.62290        52.85536         0.63721
C         56.39326        52.06691         0.55642
C         57.60733        54.25505         0.67640
C         56.35006        54.97660         0.74755
C         57.68422        57.14970         0.98396
C         56.35397        56.43535         0.97650
C         57.69547        58.62964         0.77893
C         56.37949        59.32887         0.42807
C         57.66856        61.35524        -0.12520
C         56.47454        60.64103        -0.22134
C         57.64989        62.78722        -0.28348
C         56.48883        63.50734        -0.55870
C         57.62511        65.69701        -0.39457
C         56.43948        64.95622        -0.57170
C         57.62295        67.12103        -0.43828
C         56.37114        67.80547        -0.52110
C         57.58232        69.96515        -0.29976
C         56.38692        69.22217        -0.40613
C         57.54761        71.40488        -0.12739
C         56.36065        72.08784         0.02379
C         57.54294        74.12749         0.73467
C         56.31263        73.47127         0.44587
C         58.84289        54.99021         0.61333
C         60.11217        57.10619         0.43423
C         58.91536        56.38908         0.65203
C         60.16861        58.53208         0.35109
C         58.94279        59.29216         0.38950
C         60.17634        61.37720         0.07658
C         58.92519        60.66915         0.15070
C         60.18440        62.78252         0.04041
C         58.88513        63.49596         0.08355
C         60.16845        65.67362        -0.18117
C         58.86281        64.98885        -0.01727
C         60.12521        67.16048        -0.21103
C         58.82826        67.87395        -0.26187
C         60.07941        70.03448        -0.02730
C         58.83230        69.27293        -0.21796
C         60.06670        71.41123         0.01331
C         58.81959        72.20276        -0.26981
C         59.99612        74.17878         0.76126
C         58.78185        73.52617         0.47633
C         61.38348        59.22918         0.21069
C         62.63289        61.37555         0.18894
C         61.42026        60.65131         0.14943
C         62.65341        62.79257         0.21372
C         61.40021        63.50193         0.13079
C         62.59067        65.62860         0.37221
C         61.40711        64.93203         0.17679
C         62.55602        67.07856         0.64328
C         61.27827        67.87846         0.39596
C         62.49484        70.01571         0.60771
C         61.32000        69.33448         0.25941
C         62.54687        71.43040         0.52975
C         61.35702        72.18576        -0.01030
C         62.46012        74.26206         0.77429
C         61.26275        73.58241         0.56217
C         63.85983        63.53398         0.32575
C         65.04553        65.71341         0.56969
C         63.85835        64.94503         0.43360
C         65.03956        67.13742         0.69783
C         63.79970        67.81898         0.75235
C         65.03997        70.03189         1.03904
C         63.70953        69.25823         1.00900
C         65.00148        71.47387         0.77276
C         63.74906        72.14961         0.67997
C         64.93986        74.29476         0.61977
C         63.72885        73.60057         0.65862
C         66.26270        67.88553         0.72248
C         67.47105        70.04183         0.59701
C         66.29001        69.28466         0.78391
C         67.45893        71.45443         0.56444
C         66.20713        72.17384         0.62055
C         67.41262        74.29815         0.41698
C         66.18716        73.61097         0.53734
C         68.65643        72.20512         0.41834
C         68.62291        73.59419         0.35383
O         40.13322        57.19728        -2.25223
O         29.00793        67.55892         2.14820
O         42.74969        61.67206        -3.23051
O         33.00013        61.23225        -2.29953
O         50.79794        56.27669        -1.12425
O         36.46675        68.45981        -2.33213
O         44.90381        58.12468         1.01627
O         47.09419        59.41886         0.72712
O         40.75735        48.40878         3.20120
O         37.28126        49.41136         2.74413
O         43.43177        45.78968         3.02730
O         46.02684        43.71621         2.67485
O         28.83756        65.03313         2.31618
O         60.36772        66.39943        -1.45274
O         39.59898        50.95312         2.64437
O         51.14881        62.89265        -2.87843
O         38.55433        46.81822         2.65574
O         44.53177        70.17361        -2.36848
O         50.72507        52.65227         2.71312
O         46.81337        52.78879         2.37582
O         36.72099        73.28783        -1.24714
O         47.35846        66.15147        -0.27877
O         35.19699        50.52765         1.78098
O         42.53348        42.09525        -0.96224
O         54.12106        51.47941         2.51337
O         42.59682        66.60366        -3.35503
O         48.74702        56.07960         1.84127
O         42.55370        53.22648        -1.25205
O         54.51983        72.03279        -1.51576
O         52.11817        60.72362        -2.45373
O         61.59522        67.40633         1.74117
O         29.83698        66.09622        -1.01282
O         48.82475        47.21346        -0.35530
O         24.85498        69.42709         2.76889
O         38.74967        56.15432         1.13910
O         34.94491        70.91925        -1.91099
O         64.33292        69.66922         2.26772
O         57.04552        56.76974         2.23829
O         56.94404        59.35363         1.78941
O         31.37621        68.57489        -1.46767
O         45.33485        66.50247        -3.15182
O         51.26716        73.28551        -0.70000
O         38.67034        65.08083         0.30136
O         54.45378        69.42673         1.02582
O         42.86727        37.14994         0.12502
O         53.02052        59.48381         1.12082
O         33.05846        70.34376         1.37992
O         48.29510        63.03740        -3.17863
O         48.42306        60.46816        -2.71627
O         34.45748        58.51959        -2.53772
O         58.74902        64.33786         1.29624
O         55.53926        52.38749        -0.65958
O         41.09106        64.12458        -3.33909
O         44.03365        50.93006        -0.68268
O         41.49308        73.24893        -0.54332
O         33.32639        54.35376        -1.97875
O         30.62487        61.68664         1.44827
O         34.40858        56.86492         0.62358
O         55.58598        61.90815        -2.15027
O         44.81010        36.19617        -2.76437
O         45.22568        40.96229         2.63193
H         45.39881        41.81184         3.10541
O         42.04887        39.70101         1.77700
H         42.04107        38.72850         1.90348
O         46.05019        55.17084         1.99588
H         46.80292        55.66056         2.40200
O         47.94985        53.90233        -0.94265
H         47.10660        53.69103        -1.41559
O         33.21703        65.63020         1.65860
H         33.27211        64.70862         1.99287
O         27.26837        69.87885        -0.84632
H         27.92156        70.30986        -1.43847
O         52.48348        62.72084         0.52663
H         52.55650        63.64131         0.85972
O         40.93142        45.89767         3.36093
H         40.15261        46.44200         3.63394
O         45.38452        53.93983        -1.41223
H         44.56817        53.49238        -1.75059
O         54.31551        59.61878        -2.23144
H         54.46110        60.25481        -2.96666
O         37.83366        52.43106        -1.46464
H         37.06372        52.80663        -1.94373
O         52.96976        65.79703        -2.97988
H         52.75625        64.93540        -3.40074
O         40.03004        61.07326        -3.44423
H         40.88720        61.40644        -3.80887
O         61.64598        72.39491        -1.45900
H         61.78098        71.50913        -1.85992
O         58.88808        72.55266        -1.69597
H         59.81967        72.83231        -1.87623
O         53.70507        43.64139         0.35677
H         53.47673        43.82978        -0.57639
O         40.43431        54.44284         1.95831
H         39.98581        55.27520         2.24262
O         47.27014        44.28565        -0.73402
H         47.86535        44.94380        -1.15554
O         37.50145        57.98483        -2.92295
H         37.62202        58.80888        -3.44176
O         49.97882        61.63796         0.36988
H         50.83968        61.94945         0.74942
H         23.06314        75.26184         1.83035
H         25.47542        75.27529         1.64113
H         27.98344        75.31426         1.27352
H         30.44160        75.27799         1.01994
H         32.89989        75.20449         0.99915
H         35.37502        75.11844         1.05986
H         37.81427        74.64866         1.63219
H         40.02324        74.18995         2.31983
H         42.87688        74.21328         2.37437
H         45.17621        74.50461         1.91338
H         47.64929        74.55714         1.87937
H         50.03870        74.33359         2.25496
H         52.82474        74.88829         1.77335
H         55.07440        75.06542         1.18818
H         57.51673        75.12589         1.19882
H         59.96089        75.20444         1.16333
H         62.44045        75.32598         1.05674
H         64.93556        75.39508         0.61584
H         67.41440        75.39641         0.36770
H         21.94149        69.52517         1.09331
H         20.87260        71.54602         1.69877
H         20.90371        74.01508         1.86313
H         24.51040        65.09171         1.09913
H         23.32140        67.07732         0.90265
H         26.82590        60.78512         0.37758
H         25.69089        62.93039         0.82101
H         29.17159        56.48308        -0.38708
H         27.96562        58.61197        -0.18565
H         31.68463        52.10444        -0.32059
H         30.41223        54.35823        -0.31211
H         34.43067        47.82702        -0.11105
H         33.15059        50.05412        -0.83840
H         36.98316        44.10810        -0.49179
H         35.69605        46.10216        -0.10870
H         39.37447        39.96159        -1.12507
H         38.15710        42.03806        -0.69554
H         42.02596        36.14720        -2.97723
H         40.44531        38.20637        -1.92427
H         45.01790        32.19705        -2.06619
H         42.92824        33.47191        -2.25657
H         47.17189        33.26202        -1.47367
H         48.47500        35.29799        -0.81057
H         49.77150        37.40034        -0.36516
H         51.01757        39.46952         0.13681
H         52.28464        41.56182         0.65693
H         52.97090        43.93574         2.24880
H         54.75205        45.82329         0.99885
H         55.99660        47.90689         0.81958
H         57.27899        50.03396         0.66036
H         58.58661        52.32795         0.69995
H         59.76908        54.41996         0.44515
H         61.04508        56.53967         0.29312
H         62.33007        58.66888         0.21289
H         63.58313        60.82545         0.25849
H         64.81777        62.99395         0.35850
H         66.01423        65.19182         0.57815
H         67.21052        67.33989         0.60239
H         68.42713        69.51358         0.46269
H         69.61776        71.67450         0.36322
H         69.56396        74.15272         0.25075
