         429
 CSIRO Nanostructure Databank - Neutral Graphene Oxide Data Set
C          1.57522         3.85162         0.39021
C          0.39612         4.54704         0.61765
C          1.39426         6.59945        -0.27167
C          0.30579         5.90679         0.30070
C          1.31285         8.01735        -0.57925
C          0.22530         8.78795        -0.22883
C          1.26603        10.85972        -1.03032
C          0.15956        10.16853        -0.53709
C          1.20641        12.27141        -1.35471
C         -0.02752        12.90325        -1.52185
C          1.07929        14.95680        -2.10534
C         -0.08795        14.22856        -1.98608
C          1.09088        17.23163        -1.75460
C         -0.10777        17.92727        -1.46753
C          1.15341        19.39994        -0.00785
C         -0.08287        18.95179        -0.55447
C          1.18336        20.59680         0.77003
C         -0.04374        21.20793         1.24906
C          1.17656        23.20831         1.97382
C         -0.05393        22.41517         1.85546
C          1.11700        24.72260         1.94075
C         -0.13651        25.49577         1.82041
C          1.13957        27.59037         1.55045
C         -0.10414        26.84047         1.66738
C          1.15891        29.03243         1.52987
C          0.00257        29.78712         1.85326
C          1.24104        31.87924         1.66225
C          0.05870        31.16621         1.94509
C          1.26959        33.36563         1.97483
C          0.01387        34.10148         1.55133
C          1.16605        36.18819         0.95720
C         -0.01583        35.41657         1.19958
C          1.11924        37.50321         0.46115
C          3.92030         3.81449        -0.34112
C          2.69225         4.50903        -0.18827
C          3.75627         6.57614        -1.08509
C          2.59526         5.88904        -0.54543
C          3.73351         7.92834        -1.30134
C          2.41507         8.65741        -1.39021
C          3.67092        10.86056        -1.50196
C          2.50593        10.15653        -1.22463
C          3.64892        12.28464        -1.65802
C          2.43214        12.98716        -1.60763
C          3.53244        15.21993        -1.65200
C          2.37573        14.42858        -1.78654
C          3.53864        16.71204        -1.45774
C          2.30951        17.52496        -1.15734
C          3.61345        19.31454         0.01594
C          2.37752        18.72818        -0.36197
C          3.63805        20.54781         0.70004
C          2.42245        21.21234         1.05448
C          3.65806        23.25127         1.64570
C          2.46225        22.55487         1.58925
C          3.64644        24.74223         1.99056
C          2.36812        25.37579         1.38112
C          3.55020        27.57724         1.16123
C          2.34687        26.88981         1.44493
C          3.56488        28.97900         0.99896
C          2.36993        29.73336         1.23836
C          3.60894        31.89619         0.92722
C          2.40292        31.17604         1.28036
C          3.68651        33.28618         0.97432
C          2.55046        34.07490         1.50908
C          3.62201        36.15171         0.40844
C          2.47605        35.53517         1.08757
C          3.53832        37.51579         0.00023
C          2.26761        38.17679         0.05942
C          6.18829         3.65028        -1.17567
C          5.03813         4.38982        -0.97155
C          6.23738         6.49737        -1.62761
C          4.91068         5.75315        -1.62552
C          6.24833         7.95306        -1.64554
C          4.94354         8.64789        -1.76842
C          6.22054        10.90920        -1.76242
C          4.93591        10.14526        -1.82558
C          6.20159        12.27741        -1.84640
C          4.89517        12.99083        -1.98718
C          6.09577        15.19850        -1.49774
C          4.82697        14.53984        -1.85412
C          6.07506        16.51201        -0.97239
C          4.84653        17.34474        -1.05234
C          5.99967        18.98486         0.61445
C          4.94617        18.77944        -0.50422
C          6.11595        20.49288         0.85123
C          4.90148        21.20313         0.98117
C          6.14301        23.26920         1.40403
C          4.90807        22.58637         1.34558
C          6.17430        24.74859         1.72714
C          4.86436        25.40923         1.42694
C          6.07469        27.54199         0.73900
C          4.77972        26.78039         0.95158
C          6.00903        29.01241         0.75159
C          4.80794        29.67568         0.72952
C          6.05814        31.84473         0.27478
C          4.73170        31.11931         0.28174
C          6.03908        33.28825         0.16421
C          4.84653        33.99863         0.48819
C          5.99566        36.09819        -0.19021
C          4.82392        35.41874         0.26832
C          5.94630        37.50214        -0.50466
C          4.70211        38.17665        -0.44449
C          8.57012         3.60249        -1.15360
C          7.39501         4.25007        -1.82073
C          8.69745         6.43128        -1.59626
C          7.39223         5.76009        -1.66951
C          8.69173         7.94410        -1.54262
C          7.41775         8.69077        -1.59157
C          8.67839        10.84086        -1.47596
C          7.47775        10.15812        -1.61459
C          8.71062        12.37454        -1.40336
C          7.49413        13.05660        -2.14455
C          8.42168        15.41347        -1.88473
C          7.32892        14.54836        -1.77476
C          8.46016        16.69230        -1.26447
C          7.27824        17.17250        -0.66505
C          8.58348        19.18270         0.15804
C          7.36845        18.28961         0.34406
C          8.58600        20.45427         0.69997
C          7.35157        21.15560         0.99583
C          8.59877        23.32282         1.21483
C          7.36849        22.57912         1.23218
C          8.61186        24.74171         1.11258
C          7.38048        25.45575         1.15900
C          8.57870        27.53578         0.75551
C          7.36352        26.83363         0.93622
C          8.57041        29.01516         0.66724
C          7.28239        29.75552         0.69204
C          8.51474        31.82027        -0.02683
C          7.25797        31.16155         0.23908
C          8.43879        33.20596        -0.59785
C          7.21890        33.97514        -0.17477
C          8.42053        36.07790        -0.68567
C          7.21539        35.38643        -0.34175
C          8.37848        37.48690        -0.94336
C          7.13530        38.16556        -0.88736
C         10.84763         3.59796        -0.22180
C          9.71872         4.29869        -0.75378
C         11.01431         6.40216        -0.64790
C          9.82624         5.70743        -0.98349
C         11.08844         7.82884        -0.72431
C          9.84588         8.60234        -0.88873
C         11.24035        10.68950        -0.98064
C          9.88411        10.11325        -0.96564
C         11.34336        12.07983        -1.43056
C         10.13449        12.91020        -1.69069
C         11.60086        14.93457        -1.55320
C         10.41977        14.21298        -2.01850
C         11.57378        16.31432        -1.42099
C          9.65496        17.49029        -1.21259
C         11.09499        19.24752        -0.14334
C          9.81008        18.60984        -0.37704
C         11.13540        20.50265         0.47680
C          9.87887        21.11072         0.94685
C         11.13045        23.35710         1.00900
C          9.87844        22.62055         1.23573
C         11.09256        24.74940         0.99248
C          9.84976        25.45980         0.98187
C         11.03635        27.68152         0.77142
C          9.81615        26.87945         0.82589
C         11.02945        29.01977         0.47083
C          9.75415        29.65699        -0.01669
C         10.98443        31.88925        -0.13045
C          9.73570        31.16657         0.01776
C         10.95716        33.30296        -0.38746
C          9.72105        33.98113        -0.49437
C         10.88943        36.09371        -0.91721
C          9.67449        35.38066        -0.69884
C         10.82915        37.49556        -1.25247
C          9.58236        38.16250        -1.26247
C         13.21392         3.52359         0.46091
C         12.04835         4.25186         0.05799
C         13.33749         6.37297         0.14051
C         12.13399         5.68341        -0.12724
C         13.45468         7.73471        -0.15070
C         12.30168         8.49674        -0.50339
C         13.67839        10.58723        -0.46095
C         12.38066         9.94314        -0.68107
C         13.77655        11.99503        -0.52819
C         12.69867        12.76240        -1.15550
C         13.75650        14.84901        -0.33234
C         12.69988        14.21495        -0.96811
C         13.62770        16.26721         0.04864
C         12.43222        17.04298        -0.49581
C         13.67548        19.19062        -0.00834
C         12.39609        18.55397        -0.45040
C         13.63072        20.44505         0.84613
C         12.35655        21.23720         0.70233
C         13.62942        23.36707         0.89234
C         12.36744        22.62312         0.91208
C         13.63750        24.77910         0.88589
C         12.35949        25.49968         1.09641
C         13.55149        27.69974         0.59089
C         12.31865        26.99469         1.05580
C         13.57447        29.18162         0.70792
C         12.23696        29.86798         0.58507
C         13.46879        31.95641        -0.05479
C         12.22815        31.25973         0.09610
C         13.43961        33.34723        -0.38543
C         12.19046        34.02022        -0.51379
C         13.34368        36.12525        -1.11430
C         12.13754        35.41913        -0.83834
C         13.27103        37.49476        -1.55944
C         12.02413        38.16100        -1.59556
C         15.57131         3.45613         1.15153
C         14.41322         4.16284         0.77488
C         15.79124         6.28392         0.76141
C         14.42299         5.66756         0.91207
C         15.92209         7.63300         0.45029
C         14.81933         8.35617        -0.28006
C         16.04848        10.48977         0.23228
C         14.82529         9.84447        -0.08207
C         16.08847        11.91307         0.22843
C         14.96300        12.67018        -0.14522
C         16.11496        14.80076         0.38415
C         14.98493        14.12643        -0.04763
C         16.07117        16.23553         0.73211
C         14.86746        17.02390         0.35621
C         16.20986        19.12589         0.20926
C         14.90211        18.37184         0.25667
C         16.12014        20.56076         0.67149
C         14.91428        21.23842         0.74780
C         16.08470        23.41406         0.85059
C         14.87461        22.67753         0.83478
C         16.07833        24.82070         0.79488
C         14.85151        25.50288         0.77719
C         16.07928        27.78241         0.55790
C         14.84466        26.96491         0.51041
C         16.04108        29.14811         0.37107
C         14.80179        29.89201         0.31438
C         15.99134        31.98969        -0.19312
C         14.74194        31.26105         0.04383
C         15.90802        33.41996        -0.44983
C         14.67834        34.07971        -0.56533
C         15.77114        36.19637        -1.32469
C         14.60904        35.48121        -0.96974
C         15.69719        37.50614        -1.91358
C         14.44487        38.14990        -1.98750
C         17.94685         3.40048         1.85009
C         16.80125         4.11431         1.41961
C         18.19074         6.16712         1.28611
C         16.92030         5.53006         1.18115
C         18.32003         7.54593         0.97996
C         17.18437         8.29116         0.59733
C         18.48157        10.37381         0.85318
C         17.25420         9.72876         0.50344
C         18.48614        11.83874         1.05315
C         17.37218        12.60233         0.42605
C         18.63536        14.80262         0.96298
C         17.40885        14.10684         0.47946
C         18.64921        16.21321         1.02425
C         17.35977        16.95411         1.01006
C         18.58183        19.10219         0.93529
C         17.41081        18.41663         0.79733
C         18.59488        20.55634         0.78298
C         17.37218        21.24316         0.80863
C         18.67556        23.42147         0.73160
C         17.36050        22.69111         0.98838
C         18.56232        24.83946         0.19383
C         17.36650        25.57512         0.77279
C         18.58376        27.76017         0.13998
C         17.37572        27.07295         0.68391
C         18.51969        29.14762        -0.09639
C         17.33145        29.93246         0.45394
C         18.52737        32.07754        -0.20897
C         17.21243        31.34237        -0.09249
C         18.41981        33.46395        -0.79138
C         17.16806        34.17587        -0.54982
C         18.26401        36.21057        -1.72608
C         17.09337        35.64455        -1.05094
C         18.13611        37.49200        -2.34341
C         16.87669        38.14369        -2.36815
C         19.15849         4.05280         2.06961
C         20.52746         6.13821         2.10105
C         19.30816         5.42292         1.79330
C         20.69081         7.44261         1.77614
C         19.69594         8.16549         0.90170
C         20.90106        10.38235         1.24104
C         19.67039         9.66864         1.07858
C         20.98528        11.74817         1.30158
C         19.77792        12.57980         1.33649
C         21.01489        14.78250         1.40134
C         19.82707        14.06999         1.17538
C         21.03257        16.17817         1.39901
C         19.85353        16.91807         1.22213
C         21.04410        19.10644         0.71255
C         19.86753        18.43609         1.39069
C         21.01846        20.40566         0.35288
C         19.83717        21.24478         0.53658
C         20.95580        23.38750        -0.22624
C         19.84959        22.63163         0.33640
C         20.98520        24.74359        -0.25642
C         19.89691        25.58917         0.38501
C         20.84935        27.69662        -0.71143
C         19.76619        27.02348        -0.12527
C         20.77617        29.05052        -1.00478
C         19.63868        29.81995        -0.65745
C         20.72538        31.94774        -1.35717
C         19.63459        31.25684        -0.82484
C         20.72249        33.33319        -1.53290
C         19.55137        34.11146        -1.29976
C         20.61078        36.15496        -2.32539
C         19.49290        35.51049        -1.75790
C         20.50790        37.44153        -2.87120
C         19.28912        38.10145        -2.90650
O         13.26014        19.27197        -1.40039
O         12.91764        29.70862         1.89186
O          2.90671        35.11479         2.46916
O         16.48770        16.52591         2.12837
O          4.87285        13.84815        -3.16541
O          4.78321         9.34191        -3.07644
O          4.39735        17.38210        -2.46350
O          8.12908        29.62666         1.91650
O         17.75739        13.36592        -0.77022
O          9.52890         9.40031         0.29717
O          9.06065         7.25239        -2.77711
O         17.60797        26.36941         1.97426
O         14.02029        27.25335        -0.71738
O          1.25227        24.01431         3.21798
O         18.20609        23.20695         2.08121
O         12.34968        12.27755        -2.48816
O          5.35243        26.97900        -0.42834
O          9.99026        21.62234         2.31310
O          9.49719        15.02594        -2.66226
O          0.98654        16.21568        -2.70632
O         12.41287        26.33004         2.34297
O         12.44048        16.50508         0.87967
O         10.66718        17.11060        -2.11637
O         17.29470        35.31071         0.36586
O         18.82140        12.22982         2.42021
O          7.70783        17.58505         1.59576
H          8.62384        17.24284         1.51466
O          8.47880        12.68409         0.00501
H          8.98838        12.04880         0.55270
O         17.59157        30.07570         1.88599
H         18.21589        30.83446         1.99640
O         13.59474        19.91824         2.21430
H         13.45576        20.66854         2.83053
O         20.01446        18.68905         2.81806
H         19.22332        18.32664         3.26979
O          4.34767        31.03588        -1.14193
H          5.04520        30.52736        -1.60877
O          5.40063        18.40166         1.78585
H          6.12123        18.20765         2.42630
O          2.04036         8.48479        -2.81158
H          2.79012         8.85801        -3.33522
O          7.71712        12.94491        -3.55582
H          6.91809        13.29112        -4.01152
O          1.25434        33.41878         3.43462
H          1.71623        34.25595         3.68033
O         20.21642        25.66307         1.78849
H         19.42002        26.02106         2.25409
O          2.35905        25.03299        -0.03439
H          3.10312        25.50322        -0.46968
O         20.16013         7.94785        -0.48859
H         20.16204         6.97875        -0.64183
O          5.36017        19.61778        -1.60373
H          4.91777        19.26693        -2.41166
O          4.55313         5.48653        -3.01224
H          4.45418         6.34861        -3.46906
O         18.97114        32.31427         1.20338
H         19.80055        32.83825         1.15937
O          7.41060         3.95720        -3.25545
H          8.05566         4.56188        -3.67892
O          9.61153        29.29730        -1.43189
H         10.22146        29.85874        -1.95527
O          8.25614        32.97163        -2.06343
H          8.15571        33.85494        -2.48020
O          3.67318        24.92338         3.43538
H          2.85357        24.49269         3.79309
O         16.48640        19.21964        -1.23661
H         17.27875        19.78698        -1.35048
O         14.06630         5.91557         2.32383
H         14.71249         5.42586         2.87639
O         15.15050         8.16421        -1.71115
H         15.98151         8.65471        -1.88981
O         18.29616        24.74371        -1.22954
H         19.11060        24.41797        -1.67011
O          6.37262        24.85806         3.18883
H          5.47967        24.77815         3.61187
H          1.65577         2.78744         0.65339
H         -0.47110         4.03328         1.05517
H         -0.64103         6.42830         0.49356
H         -0.63039         8.34282         0.29748
H         -0.77243        10.70376        -0.31218
H         -0.96220        12.34423        -1.38797
H         -1.04713        14.68051        -2.26805
H         -1.03829        17.62354        -1.96330
H         -1.01668        19.47540        -0.31556
H         -0.98621        20.64972         1.17220
H         -0.98502        22.82932         2.26572
H         -1.09805        24.97631         1.94040
H         -1.05576        27.38764         1.61809
H         -0.93743        29.27788         2.10299
H         -0.83687        31.70821         2.27607
H         -0.94511        33.58533         1.70082
H         -0.98699        35.90395         1.02091
H          0.14381        38.00762         0.39413
H          3.99698         2.78428         0.03946
H          2.19865        39.21947        -0.28109
H          6.24366         2.61805        -0.79691
H          4.64796        39.23847        -0.72561
H          8.55553         2.50711        -1.05086
H          7.10005        39.24066        -1.11776
H         10.77699         2.50860        -0.08680
H          9.55072        39.23587        -1.50116
H         13.16363         2.42400         0.48737
H         11.98801        39.21529        -1.90665
H         15.53533         2.35711         1.20700
H         14.38172        39.17238        -2.38715
H         17.86472         2.32015         2.03693
H         16.80629        39.15577        -2.79247
H         20.01906         3.48713         2.45575
H         21.31430         5.60355         2.65513
H         21.62643         7.95292         2.04694
H         21.83725         9.80579         1.23810
H         21.97389        12.22818         1.28677
H         21.95111        14.24163         1.59633
H         21.98073        16.69860         1.59217
H         21.97053        18.52883         0.57648
H         21.92335        20.86446        -0.07256
H         21.81112        22.83059        -0.63850
H         21.87926        25.23590        -0.66578
H         21.78130        27.16040        -0.93522
H         21.65156        29.53132        -1.45996
H         21.61626        31.39887        -1.69176
H         21.62011        33.80043        -1.95604
H         21.58875        35.65702        -2.34970
H         21.40197        37.91767        -3.29741
H         19.20327        39.09493        -3.36861
