         344
 CSIRO Nanostructure Databank - Neutral Graphene Oxide Data Set
C          1.23924         2.09735         0.93542
C          1.19625         3.48988         0.70705
C          2.44111         1.42079         0.97978
C          2.36353         4.22789         0.50352
C          1.11814         6.46695         0.52835
C          1.03261         7.77249         0.20533
C          2.34673         5.68565         0.33782
C          2.19287         8.48851        -0.45640
C          1.07082        10.74872        -0.19533
C          1.07443        12.13652        -0.51507
C          2.21520        10.00681        -0.33303
C          2.26968        12.81433        -0.73120
C          1.30222        15.86176         0.06465
C          1.42756        16.87063         1.00835
C          2.40210        15.04679        -0.22815
C          2.68642        17.10727         1.59067
C          2.83583        18.25139         2.47552
C          3.66481         2.12157         0.76687
C          3.62136         3.53172         0.50548
C          4.90871         1.45887         0.79540
C          4.83551         4.21485         0.23806
C          3.50165         6.36221         0.03721
C          3.50131         7.88504         0.12266
C          4.77262         5.63418        -0.14042
C          4.75011         8.54083        -0.52386
C          3.48256        10.71283        -0.80526
C          3.53704        12.21500        -0.56056
C          4.77185        10.05349        -0.27047
C          4.77472        12.93381        -0.37142
C          3.67365        15.17558         0.38985
C          3.79620        16.29604         1.25751
C          4.83529        14.30293         0.10488
C          5.12576        16.63060         1.88060
C          4.06217        18.74304         2.78361
C          5.24822        18.08619         2.28373
C          6.11865         2.15452         0.59243
C          6.08298         3.56647         0.31050
C          7.36895         1.48619         0.64877
C          7.32595         4.29017         0.14755
C          6.06003         6.39776        -0.24627
C          6.03872         7.88562         0.07488
C          7.33499         5.69262        -0.03723
C          7.29796         8.59375        -0.39198
C          6.00603        10.72877        -0.91750
C          6.01375        12.20026        -0.53503
C          7.28318         9.97199        -0.57927
C          7.26423        12.82823        -0.46253
C          6.12924        14.88100         0.36246
C          6.27166        16.13904         1.03488
C          7.32822        14.21107        -0.04382
C          7.50697        16.80000         1.10518
C          6.44667        18.74105         2.24432
C          7.62423        18.13627         1.67240
C          8.58054         2.17165         0.45331
C          8.56722         3.59587         0.21815
C          9.82298         1.48860         0.48922
C          9.78774         4.29990         0.02815
C          8.54042         6.42742        -0.17587
C          8.52685         7.85413        -0.38744
C          9.78221         5.71550        -0.18632
C          9.75430         8.53580        -0.64214
C          8.51367        10.68826        -0.71778
C          8.48296        12.09080        -0.72152
C          9.75467         9.95403        -0.78603
C          9.74367        12.86401        -0.98387
C          8.58090        14.84562         0.12612
C          8.68830        16.16397         0.61882
C          9.81652        14.07851        -0.09074
C          9.94917        16.86312         0.63243
C          8.81264        18.83606         1.58914
C          9.99845        18.25322         1.02601
C         11.03440         2.16265         0.27364
C         11.02869         3.58824         0.03114
C         12.27104         1.46634         0.30450
C         12.24244         4.26967        -0.20991
C         11.00344         6.40287        -0.44452
C         10.99341         7.81016        -0.68749
C         12.24145         5.67931        -0.46120
C         12.21494         8.49663        -0.96714
C         10.99003        10.64180        -0.96832
C         11.02888        12.07013        -0.95194
C         12.19497         9.90176        -1.12581
C         12.25511        12.76044        -0.94759
C         11.13643        14.79099        -0.01688
C         11.13221        16.23627         0.21800
C         12.32450        14.15250        -0.60244
C         12.33843        16.96499         0.00564
C         11.18156        18.97227         0.88168
C         12.36584        18.38542         0.32350
C         13.48946         2.11555         0.06496
C         13.48762         3.54469        -0.23746
C         14.71515         1.41288         0.17749
C         14.67796         4.20609        -0.51476
C         13.46542         6.35907        -0.70196
C         13.46985         7.76766        -0.96624
C         14.70606         5.63263        -0.71241
C         14.70101         8.43668        -1.11386
C         13.41461        10.63169        -1.49438
C         13.48506        12.08138        -1.26196
C         14.74085         9.85462        -1.48731
C         14.70034        12.76360        -1.33212
C         13.51987        14.86309        -0.64167
C         13.50675        16.27913        -0.38092
C         14.75304        14.19789        -1.05486
C         14.72430        17.02780        -0.68791
C         13.53867        19.12108         0.18214
C         14.73890        18.54718        -0.41271
C         15.95287         2.04381        -0.05130
C         15.95549         3.41621        -0.69099
C         17.17682         1.40192         0.12252
C         17.13963         4.25078        -0.20409
C         15.92722         6.33300        -0.84352
C         15.94612         7.75085        -0.94878
C         17.22357         5.57360        -0.98345
C         17.17643         8.48250        -0.90186
C         15.97607        10.61854        -1.29621
C         15.95839        12.03101        -1.39455
C         17.17882         9.92036        -1.00276
C         17.18908        12.73830        -1.34400
C         15.94990        14.88378        -1.09586
C         16.04133        16.28840        -0.54764
C         17.17542        14.21313        -1.67316
C         17.20389        17.11039        -1.04341
C         16.05320        19.15624        -0.26898
C         17.21842        18.50417        -0.73564
C         18.43473         2.09989        -0.00938
C         18.43145         3.49062        -0.20740
C         19.67564         1.41986         0.15960
C         19.66597         4.28404         0.09289
C         18.45375         6.37267        -0.62330
C         18.43211         7.78605        -0.71600
C         19.67122         5.70282        -0.42296
C         19.64939         8.49659        -0.57932
C         18.37321        10.66316        -0.81084
C         18.38021        12.05322        -1.04747
C         19.60656         9.96862        -0.26714
C         19.59744        12.85755        -0.73304
C         18.46887        14.95539        -1.38611
C         18.40545        16.43955        -1.53509
C         19.62701        14.29490        -1.10298
C         19.72883        17.23641        -1.47228
C         18.45485        19.23371        -0.73656
C         19.69179        18.62378        -0.96095
C         20.92178         2.09993         0.09416
C         20.94875         3.52981        -0.09164
C         22.14693         1.41061         0.18611
C         22.14641         4.21829        -0.20861
C         20.88805         6.40650        -0.49377
C         20.88685         7.81874        -0.55903
C         22.17037         5.64730        -0.70213
C         22.15525         8.56141        -0.53764
C         20.86686        10.69019        -0.77994
C         20.85372        12.15127        -0.33935
C         22.15624         9.94221        -0.53461
C         22.17624        12.88946        -0.12762
C         20.96717        14.93210        -1.20896
C         21.01117        16.48821        -1.38637
C         22.17632        14.28006        -0.73403
C         22.21771        17.17168        -0.89690
C         20.90703        19.29399        -0.72083
C         22.16541        18.62332        -0.65649
C         23.38003         2.10616         0.15722
C         23.38621         3.52919        -0.05326
C         24.60809         1.42671         0.32922
C         24.61342         4.25414        -0.02716
C         23.41542         6.41526        -0.33250
C         23.42169         7.82878        -0.44604
C         24.61672         5.70044        -0.14623
C         24.65203         8.52996        -0.46839
C         23.38511        10.71305        -0.61443
C         23.38543        12.07623        -0.54239
C         24.68498         9.98603        -0.91166
C         24.66686        12.82558        -0.80938
C         23.40049        15.00154        -0.69951
C         23.38368        16.46010        -0.72447
C         24.59503        14.28775        -0.46850
C         24.66657        17.26721        -0.64790
C         23.29371        19.30364        -0.23304
C         24.50983        18.53911         0.21730
C         25.82982         2.12701         0.35181
C         25.82757         3.55973         0.18803
C         27.05909         1.45150         0.56285
C         27.06176         4.27679         0.26046
C         25.84911         6.41377        -0.05113
C         25.86566         7.83404        -0.24345
C         27.06866         5.69921         0.14282
C         27.12299         8.52787        -0.14036
C         25.89837        10.73227        -0.39476
C         25.88160        12.09052        -0.26103
C         27.21618        10.00138        -0.44308
C         27.05516        12.80342         0.23386
C         25.85817        14.97795        -0.17349
C         25.88253        16.46116        -0.21994
C         26.91083        14.25633         0.66190
C         26.96499        17.15744         0.59223
C         25.81699        19.29935         0.14427
C         27.01434        18.63481         0.26088
C         28.27727         2.15033         0.62296
C         28.28131         3.57926         0.46581
C         29.51567         1.47858         0.84753
C         29.51587         4.29357         0.49894
C         28.31095         6.40015         0.18938
C         28.30366         7.84040         0.10168
C         29.52510         5.70243         0.31839
C         29.53578         8.55776         0.40736
C         28.32636        10.69469         0.32026
C         28.20734        12.11850         0.55091
C         29.44889         9.98299         0.68480
C         29.33899        12.85917         1.23563
C         28.23149        15.01650         0.61082
C         28.24789        16.39153         0.43398
C         29.44905        14.29726         0.79602
C         29.53157        17.06449         0.05504
C         28.28701        19.28009         0.15723
C         29.49721        18.58175         0.15187
C         30.70462         2.18480         0.92508
C         30.73315         3.58616         0.75268
C         31.95807         4.33953         0.88526
C         30.83157         6.43259         0.09894
C         30.74405         7.88960         0.50796
C         32.00875         5.67404         0.65797
C         31.93174         8.62592         0.88005
C         30.56599        10.62820         1.49050
C         30.64968        12.11565         1.21202
C         31.87247         9.89921         1.32687
C         31.82649        12.81027         1.14235
C         30.69811        14.96949         0.84966
C         30.70780        16.49389         0.85990
C         31.86411        14.23271         1.03074
C         31.97947        17.16280         0.41464
C         30.73778        19.23943         0.10625
C         31.95497        18.50006         0.12345
O         21.20800        15.60073        -2.50379
O          2.18909        14.11914        -1.24360
O         26.44196        15.69846        -1.33974
O         14.03525        10.17091        -2.73849
O         10.61440        13.95863         1.11591
O         19.92365        12.57486         0.71649
O          6.03301         8.02968         1.47953
O          5.40387         5.91794        -1.48069
O         19.02053        17.03564        -2.72284
O         14.58048        17.95021        -1.77938
O          4.85446        10.34311         1.12460
H          5.42450         9.62738         1.54006
O         16.22074        16.14024         0.91245
H         16.93715        15.48895         1.06800
O          3.47167         8.17050         1.52518
H          4.40006         8.00476         1.87153
O         19.58238         4.48601         1.58435
H         19.72806         3.60625         1.99748
O         16.86600         4.58945         1.18238
H         17.72646         4.83747         1.60399
O         26.60073        17.04726         2.00822
H         27.36266        17.36628         2.53682
O         27.58959        10.06004        -1.88472
H         28.45641         9.60678        -1.97718
O         20.75425        10.77959        -2.23319
H         21.03556         9.92456        -2.62232
O         29.78783        16.72506        -1.33642
H         28.94504        16.80509        -1.83142
O         30.19442        10.49290         2.90295
H         29.47609        11.15099         3.07097
O         19.55833        10.01291         1.18296
H         19.47313        10.96105         1.44413
O          3.39848        10.58244        -2.26020
H          4.27058        10.88050        -2.63295
O         17.04583        14.31295        -3.13174
H         16.21554        13.85860        -3.38903
O         22.34995        13.07081         1.31108
H         21.44867        13.17030         1.69681
O          9.62500        13.41212        -2.34300
H          9.45033        12.66594        -2.95494
O         24.85050        12.80388        -2.26775
H         24.82642        11.85180        -2.54832
O         17.40036         5.26926        -2.39472
H         17.39885         6.11603        -2.88746
O          5.20448        15.85846         3.13106
H          6.08769        16.02416         3.52385
O          5.96800        10.67621        -2.38255
H          5.86418         9.71829        -2.61486
O          4.75677         8.36244        -1.94869
H          4.77807         7.38290        -2.12818
O         26.42712        14.22468         2.02705
H         27.11306        13.75169         2.55776
O         31.03759         6.46019        -1.36719
H         31.09599         5.52761        -1.66625
O         28.91374        12.93214         2.67999
H         29.58168        13.48822         3.13847
O          2.09588         8.19906        -1.86924
H          2.64839         8.86855        -2.34685
O         24.83289         9.97546        -2.37686
H         25.79120         9.80685        -2.55913
O         24.92512        17.74178        -1.99033
H         25.27642        16.97472        -2.49715
O         16.10327         3.15679        -2.11141
H         15.34335         2.60712        -2.39375
O         30.46412        16.87899         2.25123
H         31.29628        16.74177         2.75038
O         24.20886        18.17968         1.59046
H         25.02294        17.78409         1.99741
O         22.26040         5.51347        -2.17460
H         23.08470         5.01958        -2.37304
H          0.29727         1.55294         1.09184
H          0.21717         3.98726         0.69334
H          2.46822         0.33923         1.17518
H          0.23983         5.96343         0.95835
H          0.07648         8.29896         0.34474
H          0.11035        10.27169         0.04525
H          0.12269        12.67159        -0.63125
H          0.35439        15.68645        -0.45982
H          0.57271        17.51080         1.26647
H          1.92361        18.76934         2.80550
H          4.93772         0.37578         0.98776
H          4.17111        19.68016         3.34938
H          7.38890         0.40417         0.84856
H          6.51612        19.77695         2.61108
H          9.83351         0.40433         0.67604
H          8.85903        19.86882         1.96655
H         12.26971         0.38916         0.52928
H         11.21136        20.03023         1.18281
H         14.69491         0.36266         0.50791
H         13.59222        20.14169         0.59015
H         17.19757         0.35046         0.44901
H         16.13357        20.16913         0.15221
H         19.67178         0.33153         0.31721
H         18.43461        20.28333        -0.40781
H         22.14759         0.31845         0.31615
H         20.87139        20.35794        -0.44211
H         24.60606         0.33631         0.47404
H         23.21920        20.37637         0.00485
H         27.05451         0.35873         0.69018
H         25.80926        20.38028        -0.06693
H         29.51335         0.38658         0.97559
H         28.30693        20.37958         0.08707
H         31.64679         1.65280         1.12279
H         32.86410         3.80077         1.20281
H         32.97340         6.19184         0.75445
H         32.90965         8.12818         0.81971
H         32.79495        10.38887         1.66970
H         32.78954        12.28235         1.18427
H         32.84359        14.72863         1.05957
H         32.93057        16.61176         0.39077
H         30.77109        20.33697         0.03991
H         32.89491        19.02883        -0.09568
