         210
 CSIRO Nanostructure Databank - Neutral Graphene Oxide Data Set
C         30.41681        31.66465        -0.01265
C         30.41511        32.92877        -0.06885
C         30.41245        36.01229        -0.51001
C         30.41954        37.26118        -0.55380
C         30.44987        40.38956        -0.46926
C         30.38916        41.63754        -0.38009
C         32.83910        28.85353         0.37155
C         31.72503        29.43263         0.23239
C         32.81324        31.63262         0.54187
C         31.47164        30.79694         0.21625
C         32.80065        33.05778        -0.00591
C         31.56025        33.76815        -0.17841
C         32.76789        35.92151        -0.34052
C         31.54390        35.16551        -0.36677
C         32.77207        37.36189        -0.38288
C         31.55158        38.11531        -0.47164
C         32.79467        40.26597        -0.27341
C         31.56523        39.52360        -0.42347
C         32.78677        41.71014        -0.16561
C         31.53619        42.45302        -0.20616
C         32.80819        44.39619         0.12038
C         31.69125        43.85191        -0.04834
C         35.51433        27.31711         0.22316
C         35.34979        28.74921         0.14979
C         34.13063        29.44146         0.25628
C         35.31312        31.57912         0.11572
C         34.10348        30.87729         0.24877
C         35.29621        33.04197        -0.03917
C         34.01231        33.75718        -0.13023
C         35.21018        35.93700        -0.26981
C         33.99471        35.19342        -0.26638
C         35.21578        37.33771        -0.23722
C         34.00116        38.09090        -0.28441
C         35.27268        40.24550        -0.13081
C         34.01803        39.52715        -0.22322
C         35.27840        41.67891        -0.00222
C         34.04160        42.40211         0.00881
C         35.32581        44.50317         0.39887
C         34.10082        43.83240         0.18141
C         35.53010        45.89418         0.61894
C         37.92430        27.26295         0.41437
C         36.60176        26.73270         0.36183
C         37.89256        28.68137        -0.17538
C         36.58158        29.44691         0.04803
C         37.82606        31.57747        -0.05702
C         36.56638        30.86466         0.02768
C         37.80423        33.07908         0.16771
C         36.48008        33.72241        -0.19973
C         37.75755        35.90430        -0.54479
C         36.46613        35.17546        -0.46614
C         37.79331        37.34053        -0.15395
C         36.48691        38.07361        -0.04465
C         37.75084        40.22008        -0.18558
C         36.49716        39.54364        -0.14064
C         37.75454        41.65195        -0.00106
C         36.52218        42.36570         0.15564
C         37.81652        44.44610         0.67111
C         36.56510        43.78000         0.41320
C         37.91747        45.86995         0.91230
C         36.63135        46.45900         0.80201
C         40.25797        24.87181         2.01888
C         39.26759        25.41503         1.48683
C         40.30609        27.55053         1.24908
C         39.04757        26.71369         0.94219
C         40.34288        28.87290         0.49890
C         39.12810        29.47890         0.17654
C         40.32521        31.61910        -0.22477
C         39.04389        30.89988        -0.02259
C         40.30988        33.08498        -0.49459
C         39.03045        33.81809        -0.34439
C         40.25492        35.91051        -1.00170
C         39.03871        35.15945        -0.50158
C         40.25168        37.39186        -0.64409
C         39.04825        38.08292        -0.40145
C         40.22105        40.22065        -0.61879
C         38.97691        39.49890        -0.36174
C         40.22388        41.72812        -0.29735
C         38.97573        42.35462         0.12677
C         40.29580        44.32182         0.83492
C         39.02939        43.70378         0.55176
C         40.32318        45.65006         1.32244
C         39.16856        46.50381         1.14517
C         40.55466        48.37084         0.62236
C         39.35428        47.90904         0.90456
C         42.87627        24.94479         2.23770
C         41.58411        25.44178         1.87151
C         42.86883        27.41118         0.98528
C         41.59687        26.73202         1.31135
C         42.87319        28.91996         0.58656
C         41.57927        29.62190         0.48047
C         42.81577        31.74464         0.14422
C         41.59791        30.98094         0.16728
C         42.79676        33.15646        -0.14006
C         41.57354        33.85333        -0.38815
C         42.77037        35.95768        -0.71470
C         41.55234        35.22692        -0.62649
C         42.75510        37.40709        -0.83669
C         41.49835        38.09594        -0.69799
C         42.71644        40.24279        -0.58236
C         41.50468        39.50831        -0.60456
C         42.69589        41.64561        -0.24309
C         41.50308        42.33131         0.06062
C         42.79447        44.28626         0.84626
C         41.53524        43.63105         0.61602
C         42.78856        45.53752         1.53799
C         41.56379        46.13005         1.86266
C         42.85597        48.27550         0.62969
C         41.70188        49.00368         0.41134
C         43.93383        25.58566         2.02427
C         45.32649        27.62603         1.40725
C         44.15794        26.87461         1.49513
C         45.33293        29.04408         1.04960
C         44.11053        29.70205         0.74000
C         45.26575        31.88476         0.42896
C         44.05893        31.11423         0.46098
C         45.27535        33.23234         0.02629
C         44.01945        33.88875        -0.22624
C         45.23894        35.94262        -0.96220
C         43.98936        35.26448        -0.58231
C         45.22837        37.45625        -1.21785
C         43.95141        38.14550        -0.93999
C         45.17372        40.32849        -0.93674
C         43.96395        39.56192        -0.78108
C         45.02107        41.70685        -0.82308
C         43.92354        42.36168        -0.17856
C         45.28063        44.26920         0.82839
C         44.01258        43.65648         0.42778
C         45.28250        45.53425         1.42520
C         44.06584        46.35496         1.73250
C         43.90521        47.64070         0.90605
C         47.69916        27.83486         1.72321
C         46.63444        27.18907         1.75720
C         47.82540        29.21337         1.37537
C         46.56530        29.79048         1.08292
C         47.84195        31.97468         0.56413
C         46.52380        31.24644         0.85760
C         47.77343        33.29526        -0.08707
C         46.52497        33.95359        -0.19578
C         47.71771        35.99851        -0.92364
C         46.51925        35.29082        -0.67540
C         47.69645        37.45198        -1.10910
C         46.51974        38.18145        -1.14962
C         47.83436        40.36468        -0.95930
C         46.50095        39.69083        -1.43894
C         47.99186        41.75772        -0.33688
C         46.84685        42.66381        -0.20335
C         47.64805        43.71250         1.88658
C         46.55636        43.50130         0.82043
C         47.67669        45.23987         2.11464
C         46.57054        45.79467         1.96922
C         50.36016        29.34450         1.14282
C         49.06338        29.89081         1.11379
C         50.27023        31.74847        -0.04346
C         49.09318        31.19238         0.52118
C         50.15868        33.05793        -0.75498
C         48.95115        33.90158        -0.57351
C         50.19053        35.96514        -1.26460
C         48.94819        35.27347        -0.94355
C         50.18668        37.39639        -1.32451
C         48.99542        38.13248        -1.12139
C         50.30140        40.14031        -0.46388
C         49.04568        39.52064        -0.84172
C         50.34232        41.33469         0.35660
C         49.12936        42.06183         0.55603
C         50.21919        43.36114         2.11682
C         48.98085        43.11414         1.48866
C         51.44561        29.81569         0.70811
C         52.61132        31.80721        -0.52050
C         51.53478        31.06117         0.05821
C         52.61172        32.98788        -0.90827
C         51.43870        33.77643        -1.28080
C         52.52505        36.09203        -1.47076
C         51.40032        35.22721        -1.35960
C         52.62193        37.32184        -1.57239
C         51.43382        38.24945        -1.67851
C         52.59752        40.02077        -0.13725
C         51.49851        39.43724        -0.77042
C         52.70498        40.99299         0.66326
C         51.56765        41.75682         1.02455
C         51.34398        42.82732         1.92180
O         40.14679        41.23249        -1.67378
O         40.35100        32.14356        -1.62676
O         50.56792        33.04364        -2.16924
O         45.99782        42.57552        -1.31556
O         37.05905        35.59596        -1.80404
O         45.16117        36.50185        -2.32000
O         47.23367        32.00177         1.90118
O         37.21998        37.58929         1.16949
O         48.26397        41.53074        -1.75884
O         42.97065        27.83714        -0.40909
O         37.98336        28.48307        -1.62004
H         38.08356        29.36106        -2.04579
O         47.24776        43.09007         3.10180
H         47.93335        43.26200         3.78067
O         51.29337        38.71540        -3.01510
H         51.19255        37.94511        -3.61174
O         41.55375        47.18740         2.71763
H         40.64597        47.54748         2.80149
O         40.17988        35.86779        -2.46074
H         39.23463        35.91527        -2.72260
O         40.11840        27.99186         2.63686
H         40.00876        27.18854         3.19224
O         37.89699        33.23758         1.63207
H         37.15311        32.74136         2.03675
O         46.50533        39.81732        -2.87364
H         46.88062        40.70116        -3.08844
O         32.78410        31.78260         1.98354
H         31.98175        32.29403         2.22281
O         44.21036        46.80091         3.08062
H         43.44882        47.38529         3.28927
