         470
 CSIRO Nanostructure Databank - Neutral Graphene Oxide Data Set
C         37.77287        50.30688         2.17968
C         36.67265        51.01227         2.63398
C         37.87139        53.09035         2.34347
C         36.72072        52.41573         2.71146
C         40.08218        48.81971         1.15335
C         40.10795        50.25341         1.27659
C         38.96220        50.97357         1.78798
C         40.23765        53.08719         1.52544
C         39.01724        52.39350         1.88008
C         40.34704        54.49297         1.69637
C         42.39099        48.73068         0.33146
C         41.17061        48.10072         0.74434
C         42.35955        50.20706         0.21399
C         41.25853        50.94822         0.87107
C         42.59766        53.06288         0.75530
C         41.35879        52.36759         1.02405
C         42.67666        54.46673         0.97998
C         41.52017        55.15874         1.43025
C         44.78219        45.87745         0.29127
C         43.60616        46.57174         0.28024
C         44.83824        48.65706        -0.24612
C         43.55967        47.99749         0.10882
C         44.91136        50.17626        -0.31425
C         43.65459        50.95502        -0.08626
C         45.01632        53.01887         0.22133
C         43.77262        52.36543         0.33694
C         45.08482        54.43979         0.38864
C         43.91272        55.16406         0.74068
C         45.16452        57.24552         0.58979
C         43.99408        56.57838         0.85699
C         47.34980        44.45138         0.64659
C         47.29782        45.77138         0.28836
C         46.05966        46.54551         0.21543
C         47.35781        48.67729         0.07199
C         46.09075        47.91379        -0.00959
C         47.41199        50.13535        -0.18266
C         46.21291        50.86945        -0.14623
C         47.48115        52.96506        -0.18443
C         46.24016        52.28773        -0.05440
C         47.51799        54.40033        -0.16124
C         46.31382        55.13020         0.14635
C         47.54827        57.25008        -0.13658
C         46.34178        56.54515         0.20860
C         47.57501        58.66460        -0.18749
C         49.74656        44.21819         0.18747
C         48.54746        43.65423         0.50968
C         49.80163        45.70757         0.15240
C         48.54237        46.42963        -0.26960
C         49.89822        48.62519        -0.27757
C         48.64156        47.91140         0.06824
C         49.89332        50.03536        -0.46868
C         48.66461        50.78350        -0.36479
C         49.89409        52.90139        -0.73446
C         48.69070        52.22590        -0.44015
C         49.93465        54.33486        -0.72302
C         48.72188        55.08478        -0.43506
C         49.90132        57.24517        -0.83688
C         48.73015        56.52531        -0.47047
C         49.93214        58.65567        -0.80377
C         48.72971        59.34614        -0.49574
C         52.24913        41.34269        -0.03535
C         51.10601        42.02364         0.18227
C         52.32202        44.23951        -0.28286
C         50.97816        43.46104        -0.13916
C         52.34527        45.70800        -0.13286
C         51.08601        46.45219         0.00019
C         52.33268        48.57116        -0.51292
C         51.09115        47.89911        -0.32889
C         52.32125        49.97086        -0.83642
C         51.12772        50.68593        -0.81437
C         52.34824        52.83930        -1.53054
C         51.01177        52.08736        -1.38587
C         52.38151        54.33694        -1.36329
C         51.12629        55.02908        -0.98603
C         52.40997        57.21264        -1.45523
C         51.10756        56.48135        -1.20675
C         52.42592        58.74249        -1.54021
C         51.16538        59.40148        -0.99788
C         52.43974        61.48159        -0.85009
C         51.21807        60.76208        -0.78929
C         54.91352        39.78140        -0.20613
C         54.82669        41.22924        -0.49367
C         53.50614        42.01174        -0.44481
C         54.80329        44.17776         0.03229
C         53.55372        43.46801        -0.22506
C         54.79238        45.69101         0.04485
C         53.52760        46.42524        -0.16253
C         54.81611        48.56205        -0.24536
C         53.55824        47.85318        -0.33580
C         54.72955        50.08618        -0.20992
C         53.66618        50.54863        -1.24287
C         54.89667        52.88737        -1.08304
C         53.66317        52.08935        -1.43640
C         54.87231        54.36575        -0.93013
C         53.66679        55.07045        -1.12409
C         54.86154        57.20695        -0.89196
C         53.66714        56.48548        -1.13343
C         54.86271        58.67392        -0.83672
C         53.68869        59.38583        -1.00868
C         54.91096        61.55459        -0.77108
C         53.66191        60.82597        -0.90467
C         54.96215        62.95318        -0.94350
C         57.35153        39.90678         0.16056
C         56.10245        39.17003         0.00624
C         57.33985        41.27621         0.06430
C         56.12246        41.99595        -0.36864
C         57.35067        44.19969         0.20777
C         56.10775        43.48469        -0.19422
C         57.34089        45.66291        -0.03541
C         56.06619        46.42234        -0.22496
C         57.27649        48.67265         0.21433
C         56.01519        47.90038        -0.10924
C         57.31144        49.99085        -0.57456
C         56.05412        50.79202        -0.39514
C         57.29725        52.91822        -0.25090
C         56.07745        52.16217        -0.57644
C         57.35646        54.36683        -0.52021
C         56.09805        55.07326        -0.75145
C         57.33531        57.24986        -0.69759
C         56.07050        56.49087        -0.73292
C         57.27658        58.68615        -0.34148
C         56.09489        59.38205        -0.50114
C         57.29635        61.56924        -0.26329
C         56.10138        60.84499        -0.47203
C         57.34015        62.96630        -0.45071
C         56.15820        63.64080        -0.82055
C         59.81774        37.05861         0.58838
C         58.66374        37.77204         0.60907
C         59.82181        39.89036         0.23566
C         58.63332        39.19702         0.34499
C         59.82421        41.38913         0.02039
C         58.54303        42.03096         0.60442
C         59.80623        44.26947         0.33450
C         58.53346        43.53899         0.38524
C         59.84985        45.60315         0.02151
C         58.61275        46.40457         0.16371
C         59.73051        48.55885        -0.73537
C         58.60351        47.88951         0.08308
C         59.80916        50.03206        -0.37977
C         58.62399        50.70854        -0.34410
C         59.87032        52.89831        -0.15944
C         58.60446        52.15881        -0.08086
C         59.83883        54.31385        -0.18315
C         58.57911        55.01504        -0.41346
C         59.86867        57.17571        -0.21012
C         58.63644        56.47782        -0.61072
C         59.81256        58.62232         0.09494
C         58.50728        59.35957         0.13901
C         59.80363        61.49297        -0.49823
C         58.53403        60.88733         0.26362
C         59.82897        62.99177        -0.24431
C         58.60610        63.69881        -0.29243
C         59.83462        65.78465        -0.06026
C         58.63074        65.10029        -0.17666
C         62.43759        35.56532         0.22936
C         62.36973        36.93403         0.34271
C         61.08685        37.66694         0.16957
C         62.38821        39.92772         0.29989
C         61.10919        39.18857         0.07048
C         62.36052        41.30193         0.49113
C         61.07926        42.04202         0.57080
C         62.35688        44.32297         0.67766
C         61.06516        43.54405         0.65481
C         62.38952        45.69881         0.11224
C         61.10689        46.32414        -0.29246
C         62.37412        48.57801        -0.80142
C         61.06495        47.77808        -0.69048
C         62.27572        50.02130        -0.32486
C         61.09185        50.71169        -0.22475
C         62.29827        52.90320         0.02822
C         61.09591        52.18295        -0.10336
C         62.30486        54.32482         0.06588
C         61.06457        55.03319        -0.06026
C         62.26175        57.22271         0.36730
C         61.03056        56.47837         0.01175
C         62.29939        58.67875         0.11480
C         61.08557        59.37948         0.01629
C         62.30828        61.47148        -0.11317
C         61.08145        60.77871        -0.08637
C         62.31937        62.93778         0.23204
C         61.04308        63.67809        -0.08744
C         62.34002        65.80847         0.06188
C         61.05928        65.09133        -0.00162
C         62.37540        67.20318         0.20700
C         64.86748        35.51496        -0.14938
C         63.66249        34.86047         0.01941
C         64.90065        36.96021         0.14280
C         63.61050        37.71277         0.40854
C         64.87561        39.85705         0.32193
C         63.62743        39.19503         0.29789
C         64.90265        41.28542         0.71992
C         63.59576        42.02700         0.85956
C         64.89381        44.20737         0.39474
C         63.64463        43.53364         0.80948
C         64.83578        45.68725         0.40162
C         63.56805        46.40191         0.05898
C         64.78375        48.53101        -0.17690
C         63.60118        47.83645        -0.24014
C         64.83906        50.01356        -0.26812
C         63.55295        50.77355        -0.29426
C         64.85283        52.90488         0.10036
C         63.56268        52.14527         0.35214
C         64.81469        54.34639         0.09538
C         63.56373        55.01911         0.15323
C         64.81025        57.24195         0.12660
C         63.57182        56.47549         0.35728
C         64.79097        58.63431        -0.01217
C         63.52795        59.36046        -0.05064
C         64.76550        61.47579        -0.67861
C         63.51756        60.76604        -0.20467
C         64.73995        62.97431        -0.43393
C         63.58011        63.66232        -0.18008
C         64.78796        65.84034        -0.25769
C         63.56834        65.10878        -0.11747
C         64.76667        67.26117        -0.20813
C         63.56837        67.91832         0.06147
C         67.37454        32.74874        -0.23252
C         66.18367        33.43188        -0.40082
C         67.37812        35.57319        -0.45993
C         66.14089        34.84235        -0.38929
C         67.30462        37.00964        -0.56112
C         65.99618        37.75978        -0.50308
C         67.34491        39.84673         0.00205
C         66.09792        39.17824         0.02993
C         67.42099        41.30501         0.29932
C         66.16983        42.07686         0.54983
C         67.31453        44.22758        -0.13838
C         66.10376        43.53789         0.22572
C         67.37914        45.64282        -0.08068
C         66.13857        46.40011         0.22702
C         67.37333        48.57322        -0.09016
C         66.08664        47.82977        -0.18336
C         67.35807        50.00705         0.31737
C         66.04740        50.72851         0.27949
C         67.32923        52.87597         0.18913
C         66.06862        52.21159         0.16927
C         67.35188        54.36118        -0.08585
C         66.03665        55.08744         0.10771
C         67.25566        57.26203         0.17205
C         66.04230        56.51056         0.11287
C         67.25777        58.66722         0.14372
C         66.02549        59.37684        -0.05074
C         67.25246        61.49704        -0.15122
C         66.03946        60.78439        -0.22692
C         67.31353        62.92851        -0.49742
C         65.98982        63.71279        -0.66973
C         67.28222        65.85206        -0.37459
C         66.03151        65.15927        -0.47166
C         67.28277        67.27753        -0.26017
C         66.01460        68.00422        -0.65156
C         67.02633        70.00039         0.43551
C         65.99502        69.44148        -0.24300
C         69.78531        31.33151         0.59216
C         69.74633        32.74308         0.52205
C         68.58464        33.44790        -0.01425
C         69.88549        35.51768         0.04886
C         68.61767        34.85380        -0.22861
C         70.18930        36.80916        -0.42351
C         68.37842        37.83956        -0.88947
C         69.86385        39.85854        -0.70975
C         68.50082        39.19142        -0.49066
C         69.88913        41.26530        -0.06773
C         68.58915        41.99874        -0.33856
C         69.83299        44.21209        -0.77635
C         68.52802        43.47503        -0.55550
C         69.82846        45.71315        -0.62785
C         68.57544        46.36136        -0.21882
C         69.90333        48.57911         0.24542
C         68.61263        47.78536         0.18012
C         69.84425        50.06482         0.16576
C         68.63197        50.75133         0.24563
C         69.82583        52.89548         0.31274
C         68.57032        52.18769         0.24957
C         69.82262        54.32580         0.66834
C         68.50998        55.06464         0.60778
C         69.78021        57.29905         0.38422
C         68.49975        56.55194         0.53601
C         69.72286        58.76613         0.53541
C         68.48440        59.41822         0.33200
C         69.68716        61.57835         0.33365
C         68.46135        60.83839         0.21625
C         69.70438        62.98634         0.11576
C         68.53009        63.70035        -0.18460
C         69.73898        65.86393         0.01053
C         68.51126        65.12731        -0.20658
C         69.72004        67.28860         0.13981
C         68.44002        67.99034         0.14137
C         69.25219        70.03658         1.45734
C         68.27112        69.31779         0.64590
C         68.81784        70.83136         2.54290
C         71.86313        31.40341         1.82763
C         70.82901        30.67104         1.22609
C         71.86061        32.78926         1.75504
C         70.82187        33.48065         1.09191
C         71.91443        35.73373         1.38975
C         70.87451        34.91757         0.88157
C         71.99588        37.09495         1.10930
C         71.12655        37.67589         0.15739
C         72.27028        39.84009        -0.10653
C         71.12047        39.10585        -0.18542
C         72.31190        41.26467        -0.38093
C         71.17201        42.00331        -0.41252
C         72.34388        44.27398        -0.28719
C         71.15564        43.47436        -0.66655
C         72.34616        45.61991        -0.20439
C         71.15241        46.45570        -0.45034
C         72.31310        48.65888        -0.18391
C         71.17126        47.89619        -0.06501
C         72.28261        50.06990        -0.06340
C         71.08537        50.78548         0.06055
C         72.26575        53.00744         0.01161
C         71.05048        52.23293         0.16061
C         72.30561        54.35689         0.15550
C         71.13487        55.09340         0.64817
C         72.24397        57.40929         0.93059
C         71.10102        56.59092         0.47976
C         72.14735        58.75654         1.03221
C         70.92038        59.48943         0.75764
C         72.03778        61.71358         1.08618
C         70.89065        60.90555         0.70940
C         72.09600        63.03068         0.80582
C         71.04135        63.66164        -0.06278
C         72.18149        65.87394         0.06198
C         70.97952        65.16764         0.05262
C         72.18141        67.27022         0.07159
C         70.97121        67.95972         0.13077
C         71.53890        70.83163         1.87846
C         70.63069        70.04687         1.15927
C         71.08048        71.59769         2.95188
C         69.72142        71.58497         3.28829
O         69.23965        48.03650         1.47080
O         44.86218        49.37660        -1.54045
O         59.05155        58.76719         1.38367
O         56.80395        45.94630        -1.39856
O         63.03714        44.20570         1.96308
O         62.87791        56.83331         1.63404
O         58.14501        56.97299        -1.91204
O         64.53858        37.29445         1.49896
O         64.27838        41.48788         2.03345
O         52.30546        53.70349        -2.70509
O         54.09411        41.51981        -1.71844
O         71.10096        69.35613         0.04252
O         50.44412        46.22569         1.35329
O         57.80460        52.55715         1.09477
O         66.76611        63.23022        -1.83310
O         56.30952        42.89588        -1.52076
O         64.36055        50.63604        -1.50481
O         54.57893        52.48345        -2.48630
O         51.65490        56.69898        -2.59521
O         69.48627        37.27490        -1.54817
O         61.07833        46.73352        -1.72901
O         60.91067        42.71701         1.86259
O         48.07677        48.31438         1.34184
O         59.61405        61.23594        -1.83874
O         51.47903        43.82615        -1.44674
O         56.93929        49.85357        -1.93651
O         42.65777        50.74010        -1.12863
O         61.08203        38.34247        -1.13854
O         67.11708        41.76502         1.64228
O         65.57838        46.24010         1.56376
O         54.81266        44.94848         1.31219
O         68.28784        42.49799        -1.65595
O         68.26158        55.82178         1.81293
O         70.50315        46.34900        -1.76600
O         66.83684        48.21074        -1.39972
O         70.54747        56.94263        -0.83522
O         58.86778        47.25526         1.37532
O         70.55172        43.80047        -1.96514
O         66.56157        50.21310         1.54286
O         70.58022        54.59814         1.89817
O         69.89469        41.10363         1.37187
H         70.68708        40.58077         1.61952
O         67.68816        54.49560        -1.51354
H         66.99005        54.04361        -2.03382
O         71.43362        63.36567        -1.45250
H         70.71193        63.68355        -2.03587
O         64.75095        61.32635        -2.13779
H         65.50484        61.86535        -2.47972
O         59.26918        48.52030        -2.09630
H         59.48763        47.63873        -2.47325
O         62.64440        48.70129        -2.22111
H         62.36532        47.85882        -2.64596
O         62.38078        62.92790         1.71043
H         62.17678        63.83628         2.02008
O         65.96922        67.98332        -2.12225
H         65.94811        67.04289        -2.40191
O         63.51695        51.87676         1.79014
H         63.53291        52.73517         2.26412
O         59.86710        41.63281        -1.40475
H         59.11856        41.16054        -1.82772
O         58.66154        61.24354         1.63775
H         59.04484        60.45949         2.10390
O         58.48037        41.79071         2.03070
H         59.28405        42.20390         2.43488
O         52.45121        59.07985        -2.96187
H         51.94568        58.37208        -3.42679
O         48.48140        46.32613        -1.71731
H         47.59500        46.61797        -2.01821
O         50.51764        51.87091        -2.74074
H         50.88335        52.60220        -3.29444
O         57.14373        49.08916         1.59976
H         57.60334        48.41246         2.15221
O         54.02967        49.94212        -2.48897
H         55.00196        50.08024        -2.61999
O         54.25576        50.47964         1.10385
H         54.96024        50.24774         1.74914
O         65.55554        37.89828        -1.90459
H         66.26972        38.34696        -2.40593
O         70.03333        40.00473        -2.13042
H         70.06330        39.10139        -2.51564
H         37.70690        49.21260         2.12313
H         35.75987        50.47713         2.92983
H         37.87962        54.18586         2.41326
H         35.84452        52.97602         3.06565
H         39.17625        48.26961         1.43737
H         39.49148        55.07258         2.06528
H         41.09620        47.00546         0.73035
H         41.55335        56.24279         1.59608
H         44.75617        44.78537         0.39962
H         42.66887        46.01239         0.39841
H         45.17444        58.33908         0.67709
H         43.11105        57.16441         1.14055
H         46.44584        43.93566         0.99980
H         46.66816        59.24468         0.02342
H         48.45085        42.56551         0.63050
H         48.69866        60.44216        -0.51418
H         52.27272        40.25726         0.14027
H         50.22337        41.49690         0.57354
H         52.39983        62.57112        -0.72107
H         50.31785        61.33188        -0.52295
H         54.00119        39.17694        -0.30920
H         54.05632        63.50691        -1.22393
H         56.11991        38.07705         0.11515
H         56.17281        64.72169        -1.01389
H         59.82023        36.01252         0.92672
H         57.73532        37.27086         0.91598
H         59.81084        66.88101        -0.00716
H         57.69557        65.67654        -0.18328
H         61.50717        34.98001         0.19581
H         61.45275        67.76666         0.39572
H         63.59143        33.77292        -0.11807
H         63.53529        69.01365         0.13065
H         67.34468        31.65368        -0.16563
H         65.25154        32.85479        -0.45996
H         66.95766        71.05170         0.75104
H         65.12679        70.05338        -0.52305
H         68.98873        30.73226         0.13137
H         67.75396        70.83460         2.81886
H         72.68251        30.88055         2.33972
H         70.84019        29.57300         1.26303
H         72.69085        33.34823         2.20751
H         72.65899        35.29862         2.06962
H         72.76560        37.70724         1.59997
H         73.21985        39.34202         0.14080
H         73.29653        41.72628        -0.54293
H         73.25945        43.72885        -0.01345
H         73.25665        46.12849         0.14655
H         73.27569        48.17716        -0.40716
H         73.23987        50.60254        -0.12976
H         73.17723        52.49334        -0.32221
H         73.21245        54.91811        -0.11260
H         73.17741        56.89907         1.20993
H         73.03406        59.32339         1.34828
H         72.84881        61.24693         1.66330
H         72.95521        63.62807         1.14223
H         73.13759        65.33570         0.02125
H         73.12206        67.83307         0.02575
H         72.59774        70.84173         1.58969
H         71.78504        72.21119         3.52958
H         69.36183        72.18204         4.13701
