         430
 CSIRO Nanostructure Databank - Neutral Graphene Oxide Data Set
C         27.88065        27.53252         0.36827
C         27.83284        28.79651        -0.22442
C         26.71724        29.21182        -1.00854
C         28.02303        31.10573        -1.81142
C         26.82370        30.32971        -1.79720
C         27.99658        33.36463        -2.11999
C         26.78467        34.07480        -2.14466
C         27.92320        36.00690        -1.20059
C         26.73646        35.35996        -1.62732
C         27.91876        37.39534        -0.78925
C         26.70657        38.10830        -0.57503
C         27.92655        40.15845        -0.03442
C         26.71245        39.43162        -0.19631
C         27.93266        41.53514         0.41189
C         26.71277        42.22902         0.71678
C         27.90211        44.30808         1.17999
C         26.70406        43.57027         1.05741
C         27.91010        45.69709         1.39873
C         30.33110        27.53702         0.46244
C         29.10939        26.90366         0.65673
C         30.34213        28.97772         0.30301
C         28.99953        29.67915        -0.12574
C         30.34226        31.69227        -0.99019
C         29.10470        30.88559        -0.96841
C         30.35941        33.05909        -1.34448
C         29.17510        33.88727        -1.56530
C         30.37521        36.01773        -1.05151
C         29.15687        35.28933        -1.23606
C         30.37521        37.39062        -0.82325
C         29.14469        38.09178        -0.62535
C         30.39708        40.20141        -0.15459
C         29.15322        39.48928        -0.28285
C         30.38967        41.56984         0.23946
C         29.15950        42.21459         0.54441
C         30.39457        44.41054         0.81381
C         29.20972        43.56631         1.21068
C         30.33149        45.79241         1.01040
C         29.10057        46.41456         1.37654
C         32.84076        24.71877         0.78395
C         31.67065        25.39468         0.79282
C         32.87933        27.45272         0.11445
C         31.55504        26.71811         0.08506
C         32.91536        28.91822         0.03338
C         31.61059        29.72050         0.02651
C         32.84433        31.68955        -0.76045
C         31.58465        31.04746        -0.60817
C         32.89515        33.08326        -1.06483
C         31.64436        33.78163        -1.39495
C         32.89854        35.99149        -0.89299
C         31.65464        35.31478        -1.28362
C         32.89711        37.39247        -0.73123
C         31.64572        38.18019        -1.03955
C         32.84930        40.21886        -0.19960
C         31.64144        39.54947        -0.40139
C         32.85862        41.62800         0.11340
C         31.62366        42.30784         0.29420
C         32.83399        44.44406         0.35453
C         31.62001        43.73338         0.47454
C         32.83279        45.91267         0.36183
C         31.52054        46.63279         0.72187
C         32.86729        48.61676         1.29472
C         31.67542        47.96646         1.31420
C         35.28602        23.13528         0.30133
C         35.23185        24.54704         0.10286
C         34.06142        25.30103         0.25716
C         35.33361        27.41752        -0.20334
C         34.06595        26.73446         0.01683
C         35.35778        28.83175        -0.43425
C         34.13287        29.56919        -0.45323
C         35.32510        31.67461        -0.79925
C         34.09210        30.96395        -0.67748
C         35.32041        33.05906        -0.78983
C         34.10397        33.78691        -0.97319
C         35.34087        35.92057        -0.80936
C         34.13277        35.24919        -0.91189
C         35.36053        37.32332        -0.27976
C         34.09388        38.09218        -0.52615
C         35.33502        40.19705        -0.24907
C         34.11704        39.51292        -0.35103
C         35.38441        41.60376         0.28683
C         34.08214        42.34675         0.17805
C         35.32158        44.50071         0.19738
C         34.08124        43.75776         0.25867
C         35.33463        45.92328         0.32277
C         34.10429        46.63302         0.53494
C         35.34615        48.72797         0.86567
C         34.10090        47.99671         0.85738
C         35.40256        50.10503         1.19831
C         37.74856        23.06230         0.32583
C         36.47389        22.43570         0.39684
C         37.79555        24.44714        -0.16774
C         36.47931        25.22497        -0.29853
C         37.80344        27.35613        -0.34399
C         36.53866        26.69482        -0.27805
C         37.82619        28.79610        -0.50272
C         36.60255        29.48834        -0.60966
C         37.85863        31.66968        -0.66223
C         36.60882        30.92325        -1.06572
C         37.85143        33.04262        -0.57939
C         36.57037        33.81996        -0.42991
C         37.90030        35.91903        -0.89117
C         36.60393        35.15853        -1.16206
C         37.86633        37.40955        -0.72565
C         36.59065        38.11511        -0.61080
C         37.82311        40.23973        -0.48421
C         36.58497        39.50030        -0.45140
C         37.76991        41.71964        -0.75428
C         36.56183        42.40752        -0.18251
C         37.78486        44.55176        -0.16876
C         36.55246        43.79788        -0.05662
C         37.79094        45.96439        -0.02431
C         36.55087        46.65688         0.23384
C         37.76828        48.81734         0.39955
C         36.55733        48.07172         0.48526
C         37.79840        50.18537         0.73397
C         36.58977        50.80457         1.15692
C         40.15787        20.38008         1.29644
C         38.98174        21.03819         1.06818
C         40.21473        23.12651         0.56341
C         38.96057        22.41661         0.67052
C         40.23723        24.50674         0.25758
C         39.03963        25.22454        -0.00560
C         40.24301        27.42869         0.21504
C         39.01616        26.62527        -0.15812
C         40.36212        28.72407        -0.58367
C         39.07375        29.52328        -0.54417
C         40.32075        31.67114        -0.35795
C         39.09689        30.92578        -0.57170
C         40.29581        33.03813        -0.16775
C         39.06970        33.78695        -0.33717
C         40.20830        35.96522         0.24307
C         39.06962        35.17830        -0.36879
C         40.26315        37.42854        -0.12446
C         39.08890        38.13061        -0.31968
C         40.29382        40.28065        -0.26467
C         39.05480        39.57022        -0.37710
C         40.26811        41.73169        -0.30889
C         39.04784        42.43956        -0.41528
C         40.25613        44.57909        -0.21320
C         39.02939        43.85208        -0.28303
C         40.25266        46.00612        -0.15897
C         39.01315        46.68543        -0.09425
C         40.28353        48.85417         0.14472
C         38.98430        48.18247        -0.22802
C         40.27923        50.24125         0.43531
C         39.04761        50.93490         0.68006
C         40.27796        53.02909         0.93589
C         39.08604        52.32875         0.92103
C         42.62524        20.36886         1.45424
C         41.41620        21.05606         1.18027
C         42.71392        23.11189         0.78732
C         41.44753        22.42700         0.82169
C         42.76704        24.49490         0.49075
C         41.54999        25.18097        -0.06502
C         42.73420        27.34760         0.29947
C         41.54499        26.66052         0.18185
C         42.73507        28.81270         0.21712
C         41.59237        29.48620        -0.13446
C         42.81335        31.65648         0.12615
C         41.64035        30.94341        -0.49467
C         42.79433        33.06773         0.19784
C         41.48965        33.77475         0.39572
C         42.70460        35.95594         0.02665
C         41.53360        35.25739         0.10163
C         42.72771        37.41453         0.03672
C         41.51300        38.12689        -0.04043
C         42.74604        40.25304         0.07277
C         41.50728        39.56640        -0.09559
C         42.71202        41.72173         0.11614
C         41.47530        42.44951        -0.19720
C         42.72166        44.59790        -0.28981
C         41.49613        43.87440        -0.24088
C         42.73241        46.00840        -0.20958
C         41.50169        46.72019        -0.13543
C         42.75133        48.85742         0.04949
C         41.51181        48.15433         0.01168
C         42.75617        50.28033         0.24589
C         41.52092        50.95530         0.48601
C         42.74106        53.07068         0.69639
C         41.51736        52.36209         0.71997
C         43.84113        21.02506         1.40937
C         45.18344        23.11031         1.08099
C         43.91806        22.40371         1.09654
C         45.20183        24.52046         0.88073
C         43.97815        25.21837         0.60457
C         45.20060        27.36898         0.65931
C         43.98695        26.64425         0.47612
C         45.17656        28.80681         0.67780
C         43.99604        29.51951         0.44435
C         45.16769        31.71873         0.97442
C         43.97924        30.95075         0.43587
C         45.20477        33.13508         0.47700
C         44.00434        33.79772         0.24979
C         45.23398        35.98529         0.24164
C         44.01009        35.23347        -0.21912
C         45.18971        37.40019         0.29413
C         43.97609        38.11400         0.16016
C         45.21992        40.29068         0.23626
C         43.96990        39.56575         0.19336
C         45.25570        41.69875        -0.00779
C         43.99925        42.46905         0.01255
C         45.25908        44.58243        -0.34796
C         43.98091        43.83953        -0.62261
C         45.23437        46.02727        -0.25988
C         43.99213        46.72567        -0.18090
C         45.23386        48.85196        -0.07277
C         44.00053        48.14646        -0.07991
C         45.24543        50.35115        -0.24825
C         43.96751        51.02493         0.20366
C         43.93353        52.41091         0.41979
C         47.61586        23.14353         1.29298
C         46.41125        22.44538         1.29212
C         47.65660        24.52889         1.09940
C         46.43905        25.24028         0.92421
C         47.69147        27.39256         0.78789
C         46.43169        26.67157         0.83080
C         47.69459        28.80673         0.71338
C         46.43722        29.52552         1.10407
C         47.65134        31.67105         0.57624
C         46.45945        30.98509         0.75599
C         47.65582        33.11574         0.51937
C         46.45705        33.83382         0.45278
C         47.70485        35.98849         0.40790
C         46.43766        35.28040         0.40952
C         47.70630        37.39955         0.35603
C         46.44104        38.12864         0.71945
C         47.67789        40.25810         0.26713
C         46.45957        39.58599         0.34236
C         47.70013        41.75521         0.42119
C         46.44438        42.43007        -0.05501
C         47.73540        44.59815         0.00540
C         46.43292        43.85819        -0.19770
C         47.71056        46.01019        -0.58911
C         46.44794        46.74267        -0.21112
C         47.74080        48.85016        -0.03508
C         46.46436        48.15130        -0.11520
C         47.68202        50.25816         0.28459
C         46.51775        50.95313         0.29091
C         50.13675        24.53727         0.55157
C         48.97992        25.25459         1.19856
C         50.12764        27.38296         0.46377
C         48.91873        26.69287         0.75087
C         50.11791        28.80443         0.30581
C         48.89673        29.52582         0.49149
C         50.11601        31.65956         0.15235
C         48.90689        30.95551         0.43750
C         50.15329        33.08087         0.16388
C         48.96753        33.82231         0.72722
C         50.12545        35.95427         0.06270
C         48.92093        35.27270         0.33783
C         50.09592        37.35973        -0.10537
C         48.90437        38.09365         0.10391
C         50.11293        40.25374        -0.05079
C         48.91779        39.55169         0.11531
C         50.14198        41.69542        -0.08580
C         48.96544        42.40550        -0.03431
C         50.22687        44.55726        -0.24722
C         48.94237        43.81604        -0.53529
C         50.20344        46.00623        -0.18046
C         49.00158        46.72492        -0.25329
C         50.24458        48.82996        -0.08838
C         48.97211        48.15291        -0.12160
C         51.26560        25.21007         0.21753
C         52.56505        27.35415         0.03075
C         51.34644        26.65235         0.27667
C         52.54468        28.77786        -0.12815
C         51.32260        29.50520        -0.00222
C         52.51457        31.62279        -0.50421
C         51.31974        30.92824        -0.12758
C         52.52982        33.06787        -0.53110
C         51.33592        33.78655        -0.15657
C         52.57865        35.92229        -0.34962
C         51.35923        35.22008        -0.13963
C         52.60723        37.34629        -0.42257
C         51.32609        38.05176        -0.50480
C         52.63255        40.25931        -0.36834
C         51.33983        39.56693        -0.47058
C         52.62349        41.68383        -0.23128
C         51.41090        42.39780        -0.18707
C         52.65489        44.53527         0.34890
C         51.39660        43.83541        -0.09144
C         52.68219        45.99266        -0.07077
C         51.47711        46.70747        -0.12438
C         51.42737        48.14712        -0.14503
C         54.98855        27.36814        -0.30528
C         53.81851        26.67985        -0.05011
C         54.97846        28.76417        -0.53662
C         53.74528        29.47896        -0.45010
C         54.89923        31.51614        -1.28052
C         53.70096        30.87786        -0.73031
C         54.91350        33.10159        -1.29780
C         53.72507        33.78336        -0.77334
C         55.02291        35.91347        -0.70663
C         53.79383        35.19950        -0.58236
C         55.04653        37.34075        -0.61133
C         53.81609        38.07060        -0.51986
C         55.08619        40.23937        -0.50239
C         53.82735        39.52596        -0.47448
C         55.11547        41.64944        -0.40349
C         53.89055        42.40036        -0.20171
C         55.20705        44.49303         0.27033
C         53.91215        43.76724         0.01843
C         55.14137        45.92696        -0.18642
C         53.96898        46.60486        -0.28231
C         56.18510        29.46329        -0.88082
C         56.15782        30.76981        -1.26262
C         56.18200        33.83045        -1.27294
C         56.22304        35.15398        -0.96570
C         56.26642        38.08951        -0.65931
C         56.28584        39.46003        -0.60589
C         56.34075        42.41370        -0.52135
C         56.39004        43.74476        -0.27467
O         28.04938        32.12383        -2.77916
O         38.17861        36.77075        -2.07150
O         31.96951        46.52487        -0.66284
O         31.75040        34.64767        -2.58827
O         32.43313        29.64343         1.24527
O         29.52372        29.74996         1.22572
O         43.36475        42.34437         1.31986
O         51.17632        38.83799        -1.74881
O         37.13723        24.63297        -1.46734
O         54.67778        32.30274        -2.49339
O         31.33296        26.40980        -1.34837
H         32.05298        25.80481        -1.62981
O         36.67015        30.84532        -2.53930
H         37.49776        30.37337        -2.77347
O         35.59899        41.42444         1.76277
H         34.72145        41.24352         2.16382
O         29.43458        43.25692         2.65873
H         28.64258        42.76438         2.96507
O         31.68377        38.43867        -2.48777
H         31.72881        37.56927        -2.94153
O         40.04086        27.84688         1.60086
H         40.02217        27.04428         2.16264
O         47.61881        45.98747        -2.04369
H         48.18387        45.24884        -2.37953
O         36.55107        34.85742        -2.57161
H         36.97328        35.61581        -3.03913
O         44.97669        31.80043         2.43587
H         45.21391        30.90857         2.79660
O         39.89056        35.98558         1.70340
H         40.51349        36.61557         2.12662
O         44.12498        35.16652        -1.68587
H         45.01955        34.82477        -1.89745
O         41.67504        25.05248        -1.54073
H         41.01106        25.65637        -1.94124
O         46.40013        29.47258         2.60253
H         47.27811        29.77681         2.92034
O         38.83781        48.42911        -1.68848
H         38.79629        49.40152        -1.81352
O         47.69372        41.98893         1.91137
H         46.89337        41.54223         2.26571
O         46.40369        38.11892         2.20225
H         45.54999        38.52122         2.47109
O         35.42474        37.15836         1.21033
H         35.43248        38.06301         1.59282
O         40.59213        28.37713        -1.98069
H         40.88924        29.20668        -2.42599
O         41.28365        33.68854         1.85502
H         40.57361        34.34336         2.08062
O         37.63207        41.83603        -2.23285
H         38.41631        41.40407        -2.63458
O         49.17631        33.81869         2.19866
H         48.42787        34.31386         2.59664
O         52.60666        44.56272         1.82467
H         53.51520        44.81734         2.12323
O         55.38518        44.54752         1.74874
H         55.54915        43.62709         2.04801
O         49.28853        25.29387         2.64613
H         50.13884        25.77336         2.74370
O         43.93271        43.58684        -2.07086
H         44.11461        44.43487        -2.52885
O         48.81538        43.67159        -1.99860
H         49.58059        43.14191        -2.30957
O         45.28246        50.57714        -1.71022
H         46.05049        50.07538        -2.05878
O         36.46007        34.14342         0.98471
H         36.40927        33.30748         1.49327
O         47.92901        44.75986         1.42810
H         47.90413        43.85882         1.84020
O         41.89540        30.94547        -1.96381
H         42.83064        30.67779        -2.09592
H         26.96578        26.92208         0.38448
H         25.81033        28.59111        -1.02858
H         26.00673        30.62684        -2.46751
H         25.89033        33.60841        -2.57758
H         25.78105        35.90040        -1.63229
H         25.74108        37.59651        -0.68445
H         25.74869        39.92748        -0.02172
H         25.75119        41.70810         0.62499
H         25.74312        44.08916         1.19312
H         26.95542        46.22867         1.52744
H         29.08026        25.82347         0.85799
H         29.06750        47.50271         1.52200
H         32.88745        23.71702         1.23455
H         30.77861        24.92733         1.23217
H         32.91022        49.62726         1.72315
H         30.81262        48.44098         1.80290
H         34.34737        22.58016         0.43543
H         34.49230        50.63951         1.49939
H         36.41473        21.35963         0.61057
H         36.58386        51.86393         1.44472
H         40.15284        19.31886         1.58458
H         38.03593        20.49009         1.17103
H         40.27780        54.11406         1.11288
H         38.15313        52.88202         1.09254
H         42.58467        19.30276         1.72020
H         42.73829        54.15746         0.86293
H         44.75357        20.46020         1.64171
H         44.85813        53.00037         0.35586
H         48.54726        22.58950         1.47393
H         46.43499        21.36022         1.45730
H         48.60523        50.77193         0.58976
H         46.53559        52.01615         0.57025
H         50.11044        23.44220         0.45622
H         50.27158        49.92783        -0.04835
H         52.12829        24.64754        -0.16815
H         52.36760        48.71616        -0.13069
H         55.94426        26.82654        -0.35601
H         53.86360        25.59404         0.10894
H         56.09082        46.44510        -0.38883
H         54.00074        47.66137        -0.59007
H         57.13105        28.90230        -0.89724
H         57.07301        31.26009        -1.62123
H         57.10361        33.30888        -1.56540
H         57.19374        35.66729        -0.98848
H         57.22623        37.55976        -0.72626
H         57.25921        39.96876        -0.62722
H         57.25627        41.90331        -0.85376
H         57.33972        44.28995        -0.38465
