         324
 CSIRO Nanostructure Databank - Neutral Graphene Oxide Data Set
C          2.68125         2.49168        -3.59168
C          2.39138         3.77149        -3.09685
C          3.82267         1.81456        -3.19134
C          3.25375         4.41506        -2.18465
C          1.83292         6.47653        -2.05152
C          1.66499         7.80333        -1.70786
C          3.00402         5.76236        -1.70344
C          2.67611         8.54243        -1.02441
C          1.42567        10.69484        -1.30248
C          1.32588        12.05084        -1.14955
C          2.55225         9.94929        -0.83745
C          2.44471        12.85780        -0.65050
C          1.39969        15.06155        -1.64449
C          1.57371        16.23255        -2.27115
C          2.50873        14.35805        -0.95957
C          2.93156        16.84837        -2.46078
C          2.92162        18.35635        -2.38899
C          4.71414         2.40949        -2.25371
C          4.42658         3.72344        -1.75805
C          5.86492         1.72994        -1.80436
C          5.32064         4.32340        -0.81644
C          3.98790         6.42798        -0.90329
C          3.85252         7.82572        -0.59688
C          5.12359         5.70567        -0.44550
C          4.93963         8.50194         0.03559
C          3.60575        10.70032        -0.12182
C          3.70755        12.16248        -0.32426
C          4.85023         9.95516         0.32655
C          4.88978        12.85414        -0.10285
C          3.85612        14.96083        -1.01686
C          3.99681        16.24500        -1.57023
C          4.98029        14.27521        -0.46505
C          5.20867        16.95491        -1.41288
C          4.04272        19.04785        -2.09862
C          5.27204        18.37765        -1.69483
C          6.68774         2.27039        -0.77840
C          6.39956         3.58986        -0.29419
C          7.67461         1.46901        -0.17445
C          7.15721         4.17385         0.87522
C          6.18560         6.38822         0.22194
C          6.10023         7.80580         0.38724
C          7.32283         5.66692         0.66884
C          7.27291         8.51549         0.93678
C          6.08804        10.75521         0.47063
C          6.08871        12.12358         0.31798
C          7.30714        10.03564         0.91459
C          7.36143        12.86430         0.53242
C          6.22261        14.94405        -0.45929
C          6.33826        16.28906        -0.87914
C          7.43112        14.29197         0.09801
C          7.60197        16.99941        -0.77979
C          6.43794        19.07857        -1.47037
C          7.64289        18.41946        -1.04649
C          8.47214         1.90191         1.01359
C          8.45300         3.42428         1.21267
C          9.84710         1.34326         0.75877
C          9.74078         4.17792         1.34438
C          8.54723         6.36272         0.92859
C          8.54397         7.78500         0.93176
C          9.74311         5.64367         1.19009
C          9.79510         8.53515         0.85320
C          8.61835        10.73158         0.83761
C          8.64357        12.11960         0.65227
C          9.82848        10.00553         0.93613
C          9.89043        12.81285         0.65845
C          8.75597        14.81236        -0.41490
C          8.77737        16.31903        -0.47170
C          9.95841        14.20503         0.26397
C         10.02886        17.00221        -0.42533
C          8.84452        19.11508        -0.90267
C         10.05977        18.44574        -0.58242
C         11.04989         2.02864         0.92686
C         11.04214         3.46145         1.24661
C         12.29049         1.34621         0.82081
C         12.22155         4.12415         1.43889
C         10.97533         6.36663         1.49094
C         11.08393         7.78650         1.05522
C         12.26176         5.59314         1.65567
C         12.32456         8.54397         1.33319
C         11.06974        10.68197         1.04891
C         11.07759        12.09606         0.96980
C         12.32322         9.95121         1.25028
C         12.34922        12.82039         1.12573
C         11.16112        14.89701         0.19672
C         11.21211        16.27170        -0.22396
C         12.40210        14.27014         0.71008
C         12.50044        16.98699        -0.31576
C         11.26429        19.14375        -0.39841
C         12.49654        18.46517        -0.19797
C         13.53020         1.94281         1.19314
C         13.49056         3.37100         1.59973
C         14.74590         1.28445         1.14692
C         14.78862         4.11551         1.69470
C         13.51582         6.32988         1.30737
C         13.53558         7.81618         1.42101
C         14.80649         5.56667         1.35683
C         14.76209         8.49541         1.44644
C         13.57354        10.64495         1.33050
C         13.62004        12.06854         1.19336
C         14.79188         9.91278         1.44758
C         14.83957        12.77001         1.23258
C         13.74101        14.73250         0.14511
C         13.79315        16.24149        -0.07869
C         14.90499        14.17427         0.93371
C         14.96407        17.00769         0.37480
C         13.70658        19.12441        -0.01517
C         14.93598        18.43562         0.27024
C         16.01425         1.89162         1.71182
C         16.06528         3.39313         1.53959
C         17.28325         1.24912         1.22896
C         17.24820         4.09353         1.49981
C         16.06868         6.27858         1.50433
C         16.05506         7.74904         1.19032
C         17.26951         5.55816         1.56928
C         17.22661         8.45248         1.81360
C         16.05562        10.62860         1.59281
C         16.05940        12.08173         1.56765
C         17.24272         9.92408         1.74385
C         17.22773        12.81772         1.79747
C         16.07843        14.90235         1.10545
C         16.11001        16.33614         0.84855
C         17.27811        14.24729         1.58865
C         17.30604        17.07042         1.07441
C         16.12096        19.15334         0.50734
C         17.32066        18.48961         0.85945
C         18.47810         1.93799         1.18321
C         18.51730         3.38809         1.41603
C         19.70362         1.26579         0.85725
C         19.71535         4.06992         1.50141
C         18.52106         6.23264         1.64588
C         18.50704         7.68019         1.94835
C         19.76218         5.52633         1.60344
C         19.76132         8.45363         1.72516
C         18.47629        10.60032         2.16673
C         18.43006        12.10419         2.26051
C         19.79551         9.91214         2.01112
C         19.73714        12.83204         2.29720
C         18.46297        14.98669         1.75937
C         18.50726        16.39888         1.47654
C         19.73128        14.30951         2.12863
C         19.70936        17.13439         1.59145
C         18.53965        19.19933         0.99278
C         19.73731        18.53952         1.31893
C         20.94083         1.91082         0.93936
C         20.98055         3.29821         1.46627
C         22.15719         1.26789         0.64799
C         22.29616         4.02446         1.48734
C         20.98751         6.21682         1.65622
C         21.04195         7.68994         1.57261
C         22.28482         5.51684         1.68086
C         22.31534         8.44271         1.63034
C         20.97104        10.59228         1.92379
C         20.94098        12.07607         1.82017
C         22.33368         9.91181         1.98687
C         22.18569        12.83300         1.50620
C         21.02984        14.99895         1.89695
C         20.96461        16.47584         2.01491
C         22.19669        14.30668         1.74194
C         22.25635        17.26166         1.98986
C         20.98449        19.25362         1.26492
C         22.22171        18.64813         1.46122
C         23.39829         1.96326         0.53197
C         23.45977         3.39774         0.81130
C         24.55693         1.27590         0.15933
C         24.59040         4.13216         0.53225
C         23.53917         6.30695         1.41628
C         23.49494         7.79773         1.30774
C         24.74740         5.56154         0.91786
C         24.65577         8.54418         0.91447
C         23.49428        10.69029         1.36718
C         23.46085        12.08072         1.34878
C         24.66893         9.96692         0.92431
C         24.65100        12.83579         1.07079
C         23.51664        14.98432         1.78119
C         23.54955        16.49349         1.94526
C         24.69122        14.25999         1.21606
C         24.77966        17.25142         1.52776
C         23.43554        19.31942         1.14394
C         24.68377        18.67840         1.11988
C         25.69687         1.99032        -0.39576
C         25.67161         3.52723        -0.25992
C         26.97912         1.34163        -0.70066
C         26.92784         4.27690        -0.48562
C         25.86806         6.35493         0.30427
C         25.65727         7.82133         0.09709
C         26.93460         5.65996        -0.46639
C         26.69700         8.59603        -0.65240
C         25.83996        10.69225         0.48873
C         25.84117        12.11797         0.73988
C         26.86172        10.03670        -0.31051
C         27.00825        12.91230         0.66307
C         25.84613        14.98586         0.86417
C         25.94497        16.45780         1.02232
C         27.02087        14.29120         0.48711
C         26.96167        17.16791         0.19139
C         25.86172        19.33906         0.70711
C         27.04744        18.64387         0.34043
C         28.10552         2.06905        -1.04124
C         28.12574         3.53514        -0.85905
C         29.28988         1.45507        -1.56271
C         29.25804         4.34531        -1.55712
C         27.93346         6.41260        -1.19682
C         27.83117         7.85799        -1.30233
C         28.95891         5.74037        -1.87424
C         28.70946         8.56032        -2.09388
C         27.95436        10.65363        -0.94156
C         28.48633        11.92649        -0.57840
C         28.62296        10.03581        -2.11220
C         29.05833        12.83570        -1.42823
C         28.33603        14.94809         0.08014
C         28.14774        16.40875        -0.30262
C         29.07179        14.28712        -1.11914
C         29.38541        17.15655        -0.62038
C         28.25212        19.27307         0.04030
C         29.42463        18.55733        -0.39594
C         30.28322         2.18439        -2.20942
C         30.23079         3.58623        -2.35400
C         31.08535         4.31344        -3.23722
C         29.73471         6.37458        -2.94962
C         29.60711         7.91613        -3.06675
C         30.88951         5.64297        -3.49850
C         30.66844         8.74916        -3.67660
C         29.59195        10.85866        -2.92939
C         29.69132        12.40110        -2.75250
C         30.67204        10.09562        -3.60535
C         31.09612        12.99264        -2.73578
C         30.25906        15.07306        -1.66051
C         30.49697        16.46210        -1.15022
C         31.32794        14.23359        -2.26650
C         31.68950        17.16649        -1.36804
C         30.64597        19.23615        -0.63410
C         31.76120        18.53889        -1.08238
O         28.91725         7.02150        -3.98953
O          8.92088         3.74806         2.55917
O         28.97359        15.03754        -2.36007
O         25.44191         8.19555        -1.32066
O         28.26543        12.30437         0.76056
O         21.23759        12.46948         0.41791
O         29.30287         4.01711        -0.13733
O         21.80600         3.35211         2.69086
O         10.61632         8.00872        -0.30769
O         12.33988        13.93969         2.11697
O         23.17440         5.91528         2.78818
O         27.01223        16.67659        -1.18916
O         25.92890         5.92808         1.70961
O         20.25571         8.18006         0.37030
O         14.08181         3.70860         2.92679
O          3.79346        10.29052         1.28272
O         19.81494        13.67130         3.48088
O         21.53219        17.06748         3.23779
O          7.07198         9.31380         2.17278
O         28.24147        10.54552        -3.44529
O         14.11296         5.85246         0.04751
O          7.31100        13.98100         1.50988
O         25.23756         2.89534        -1.49920
O         13.36955        16.56424        -1.45426
O         18.27387        11.28148         3.46272
O         17.69368         7.99290         3.12726
O         25.92543        16.95469         2.39450
O         23.77313        15.63016         3.08342
O         11.57024         6.10571         2.82546
O          2.10830        13.87840         0.35916
O         22.66173         9.94652         3.42706
H         22.10460         9.28701         3.89329
O          8.80374        14.34540        -1.81196
H          9.61658        14.71199        -2.22090
O         15.94577         1.65394         3.16461
H         15.22980         2.24494         3.50602
O         16.25311         7.84920        -0.26053
H         15.54621         7.30184        -0.67585
O         29.23570        14.91492         1.21055
H         29.23784        13.99436         1.55687
O          3.32961        16.51365        -3.83749
H          4.19265        16.94834        -4.00567
O         29.02088        12.96964        -3.88715
H         28.21374        12.43033        -4.04609
O         13.83788        14.08482        -1.15689
H         13.69786        14.78934        -1.83522
O          6.28840         4.02604         2.04051
H          6.85799         4.17420         2.82865
O          7.92601         1.29265         2.21610
H          8.25856         1.82648         2.97244
H          1.99087         2.02437        -4.30771
H          1.47839         4.27292        -3.44477
H          4.04218         0.81068        -3.58157
H          1.03273         5.97775        -2.61469
H          0.73345         8.30100        -2.00661
H          0.57347        10.16286        -1.74661
H          0.39423        12.56016        -1.42996
H          0.38832        14.64558        -1.52732
H          0.71481        16.74849        -2.72664
H          2.00523        18.88536        -2.69136
H          6.08338         0.72357        -2.19170
H          4.04516        20.14802        -2.13320
H          7.81331         0.44033        -0.53939
H          6.46340        20.16547        -1.64056
H          9.89485         0.26561         0.53755
H          8.86618        20.20099        -1.07839
H         12.28298         0.28538         0.52899
H         11.25960        20.24380        -0.42241
H         14.76613         0.22382         0.85151
H         13.72397        20.22471        -0.03135
H         17.27969         0.16523         1.03515
H         16.12346        20.24759         0.39692
H         19.66385         0.20587         0.56373
H         18.55354        20.28217         0.80021
H         22.13654         0.20256         0.37266
H         20.95667        20.30379         0.93631
H         24.56673         0.17609         0.17035
H         23.37431        20.36530         0.80648
H         27.01265         0.24207        -0.73141
H         25.83779        20.43403         0.59392
H         29.34367         0.35676        -1.57145
H         28.32805        20.36543         0.15459
H         31.09671         1.63885        -2.71073
H         31.90010         3.77373        -3.74247
H         31.52904         6.15286        -4.23196
H         31.46182         8.23891        -4.24227
H         31.48706        10.65508        -4.08807
H         31.92860        12.42093        -3.17362
H         32.35092        14.63934        -2.29542
H         32.56744        16.65738        -1.78991
H         30.70473        20.32032        -0.46162
H         32.70427        19.07513        -1.25789
