         236
 CSIRO Nanostructure Databank - Neutral Graphene Oxide Data Set
C        -11.04549         0.80498         0.82984
C         -9.78073         1.62268         0.94785
C         -8.53296         0.81609         0.52836
C         -7.28411         1.46740         0.15595
C         -6.22121         0.77504        -0.42168
C         -5.12338         1.45267        -1.14118
C         -3.84262         0.75106        -1.19863
C         -2.60894         1.47276        -1.50680
C         -1.34345         0.77959        -1.01208
C         -0.06984         1.53022        -1.24666
C          1.17690         0.77645        -1.52024
C          2.47798         1.54061        -1.39855
C          3.85614         0.85028        -1.53828
C          4.90308         1.37797        -0.57592
C          6.29791         0.78407        -0.72974
C          7.18944         1.20160         0.43361
C          7.98804         0.31322         1.05849
C          9.89563         1.36108         1.55377
C         11.00622         0.43266         1.40203
C         -9.97161         2.96734         0.22893
C         -9.05876         3.95637         0.41136
C         -7.12259         2.89916         0.24517
C         -6.26545         3.65104        -0.50871
C         -5.14980         3.00914        -1.25190
C         -3.86248         3.74628        -1.30185
C         -2.62073         2.98959        -1.59279
C         -1.29996         3.71273        -1.49088
C         -0.05325         2.94050        -1.23376
C          1.14248         3.64068        -0.94052
C          2.31076         2.79642        -0.50653
C          3.58515         3.56405        -0.30196
C          4.79177         2.76416        -0.02897
C          6.04801         3.46188         0.42357
C          7.24995         2.65733         0.79205
C          8.56558         3.37874         0.90629
C          9.81702         2.63404         1.07742
C         -8.89765         5.32674        -0.02730
C         -7.63461         5.88937        -0.19959
C         -6.40644         5.12051        -0.59274
C         -5.08265         5.86273        -0.78347
C         -3.81586         5.08890        -0.92621
C         -2.58538         5.83654        -0.81213
C         -1.29684         5.19657        -1.19508
C         -0.01898         5.81414        -0.80149
C          1.17311         5.05995        -0.72006
C          2.41120         5.71557        -0.37765
C          3.59369         4.95234        -0.20453
C          4.90364         5.67127        -0.11091
C          6.17990         4.90045         0.03098
C          7.49051         5.63791         0.34532
C          8.59926         4.73540         0.83409
C         -7.50682         7.31743        -0.20504
C         -6.27997         7.97305        -0.16465
C         -5.03976         7.25363        -0.31156
C         -3.81660         7.85042        -0.03243
C         -2.59415         7.13155        -0.30368
C         -1.33699         7.90548        -0.16305
C         -0.00416         7.22792        -0.44004
C          1.21717         7.84628         0.07095
C          2.51049         7.23149        -0.38489
C          3.70849         7.77185         0.36295
C          4.88942         7.07299         0.37213
C          6.06566         7.58471         1.07515
C          7.22802         6.86323         1.18988
C         -6.20295         9.39284         0.10364
C         -5.01206        10.00051         0.35337
C         -3.76681         9.25638         0.36692
C         -2.58355         9.84926         0.72724
C         -1.34644         9.00527         0.88186
C         -0.05159         9.75665         0.95904
C          1.16627         9.13196         0.67473
C          2.41502         9.75099         1.07164
C          3.61597         9.07739         0.99160
C          4.80853         9.62045         1.60718
C          5.95767         8.90085         1.67659
C        -11.06699        -0.53953         0.73691
C         -9.84392        -1.31131         0.61364
C         -8.60672        -0.56832         0.45584
C         -7.38329        -1.36444         0.26887
C         -6.13921        -0.66216        -0.19919
C         -5.08071        -1.46575        -0.87446
C         -3.84163        -0.71355        -1.25879
C         -2.55867        -1.47374        -1.38950
C         -1.27883        -0.68763        -1.42652
C          0.01010        -1.40430        -1.24305
C          1.19176        -0.70287        -1.41339
C          2.50057        -1.42046        -1.42376
C          3.80326        -0.68336        -1.47069
C          5.05586        -1.40734        -1.08159
C          6.21807        -0.72766        -0.83055
C          7.53845        -1.42556        -0.67690
C          8.18597        -1.13324         0.71237
C          9.64536        -1.60664         0.62823
C         10.84128        -0.87295         1.05421
C         -9.84215        -2.69549         0.69906
C         -8.65674        -3.48618         0.52018
C         -7.49874        -2.80887        -0.17247
C         -6.17003        -3.54500        -0.10026
C         -4.99725        -2.90228        -0.51368
C         -3.71294        -3.56457        -0.57073
C         -2.52922        -2.89607        -0.95992
C         -1.24768        -3.55038        -0.90929
C         -0.03971        -2.84043        -1.10754
C          1.24960        -3.55809        -1.15097
C          2.51771        -2.79587        -0.77577
C          3.81026        -3.57729        -1.00712
C          5.03305        -2.86504        -1.08887
C          6.28642        -3.57712        -1.00659
C          7.47167        -2.91198        -0.82533
C          8.78025        -3.64579        -0.63699
C          9.84992        -2.80141         0.01073
C         -8.57623        -4.82299         0.84364
C         -7.34125        -5.54973         0.72804
C         -6.17342        -4.91225         0.27412
C         -4.91703        -5.74206         0.12341
C         -3.64822        -4.93911        -0.12757
C         -2.43792        -5.59794        -0.08689
C         -1.21014        -4.95970        -0.52897
C         -0.01613        -5.67135        -0.50706
C          1.25675        -5.03387        -0.87981
C          2.54334        -5.61935        -0.30777
C          3.80774        -4.97868        -0.83579
C          5.00361        -5.76835        -0.88757
C          6.33450        -5.08587        -1.16027
C          7.40137        -5.68592        -0.24909
C          8.46645        -4.88730         0.15956
C         -7.28650        -6.94119         1.11667
C         -6.08700        -7.57117         1.34327
C         -4.83008        -6.71836         1.31906
C         -3.53866        -7.53343         1.26672
C         -2.36658        -6.93883         0.56200
C         -1.21866        -7.83270         0.24845
C          0.01086        -7.12117        -0.19276
C          1.31142        -7.73594         0.20204
C          2.51835        -7.12571        -0.43301
C          3.77977        -7.90244        -0.45666
C          5.03075        -7.14110        -0.65553
C          6.33540        -7.90540        -0.66450
C          7.28782        -7.02923         0.10810
C         -6.00029        -8.96143         1.69125
C         -4.81116        -9.63897         1.75634
C         -3.54918        -9.01065         1.46240
C         -2.37832        -9.73373         1.37583
C         -1.12420        -9.15044         0.94724
C          0.07946        -9.80029         1.04404
C          1.36040        -9.11655         0.75033
C          2.65468        -9.83300         0.66165
C          3.78696        -9.25771         0.16089
C          5.08613        -9.90826         0.26238
C          6.23426        -9.29228        -0.07989
O          1.48141        -7.86745         1.65515
O         -7.91990         3.57028         1.18269
O          6.83083        -8.08174        -2.02034
H          6.90249        -7.18408        -2.43062
O         -0.68663         8.16111        -1.41106
O         -1.49372         8.28006         2.16232
H         -1.48090         8.94525         2.88266
O          2.42871        -2.53587         0.65251
H          2.51732        -3.40335         1.12077
O         -6.31331        -1.07580         1.20808
O          4.48763         1.54216         0.79710
O          2.90773        -7.74961        -1.67347
O          5.70783         5.26664        -1.29910
O          6.32135         3.16208         1.82860
O          7.49724        -1.93091         1.70135
H          7.74594        -1.58854         2.58593
O         -1.90771        -1.11173        -2.66494
O          6.88900         1.32068        -1.94670
H          6.19003         1.28851        -2.64855
O          4.35315         1.19544        -2.85262
H          3.62652         0.98218        -3.48609
O          8.44743        -0.91144        -1.68308
H          8.10287        -0.04042        -2.00333
O         -4.87028        -1.16724        -2.27408
O         -5.51613         2.17893        -2.37366
O         -5.08130        -6.58460        -1.05626
H         -5.08717        -6.00629        -1.84787
O          8.02184         6.18365        -0.89968
H          7.25941         6.23822        -1.52687
O          2.69613         7.64347        -1.78579
H          1.87973         7.40736        -2.27685
O          1.90875         2.24162         0.80649
H          2.73665         1.90622         1.23499
O          6.73605        -5.36064        -2.54484
H          6.03166        -5.01651        -3.13556
O         -1.53557         0.75250         0.45305
H         -0.65820         0.83345         0.88709
O         -9.63332         1.88923         2.37056
H         -8.85059         2.48011         2.46625
O          1.83507         1.47560        -2.68714
O          2.52348        -5.31270         1.12900
H          2.22043        -6.10625         1.63325
O         -7.86080        -2.73320        -1.58621
H         -8.01536        -3.64439        -1.91206
O          9.30277        -4.08235        -1.92292
H          8.58191        -4.57538        -2.38078
O         -4.83752        -5.95786         2.54036
H         -3.89986        -5.87874         2.83590
O         -2.48246        -6.85766         2.04367
O         -2.60496         2.14583        -2.79806
O         -0.80289        -7.90530        -1.14803
O          1.37293        -4.52190        -2.24175
O          8.75416         0.76566         2.14556
O          3.22749        -1.28720        -2.68243
O         -5.98841         5.62114        -1.90778
O         -1.21636         4.68088        -2.58112
H         11.76846        -1.45879         0.93242
H         12.03235         0.82044         1.49876
H         10.73360         3.10678         0.69324
H          9.57179         5.23816         0.95498
H          8.07960         7.30976         1.72631
H          6.84439         9.31383         2.17941
H          4.74973        10.62110         2.06028
H          2.37695        10.73731         1.55774
H         -0.04867        10.74262         1.44846
H         -2.55867        10.91204         1.01366
H         -4.97465        11.07524         0.58384
H         -7.13884         9.96956         0.13559
H         -8.42242         7.91194        -0.06110
H         -9.77503         5.99289        -0.05176
H        -10.87748         3.13718        -0.36999
H        -11.99357         1.35614         0.92472
H        -12.02498        -1.08143         0.73487
H        -10.78022        -3.21340         0.95305
H         -9.45002        -5.33676         1.27263
H         -8.23231        -7.49082         1.24298
H         -6.94088        -9.50952         1.85465
H         -4.81021       -10.71670         1.97668
H         -2.39193       -10.80584         1.62660
H          0.12253       -10.80762         1.48576
H          2.71284       -10.84222         1.09826
H          5.11103       -10.92985         0.67195
H          7.18538        -9.83667         0.02227
H          7.98254        -7.46267         0.84453
H          9.18336        -5.26987         0.90256
H         10.87783        -3.18605        -0.08734
