         477
 CSIRO Nanostructure Databank - Neutral Graphene Oxide Data Set
C         37.47902        49.91894         0.62311
C         36.25918        50.55486         0.40556
C         37.38226        52.69078         0.37691
C         36.20973        51.94791         0.28867
C         40.00537        48.59596         1.31547
C         39.95565        49.97096         0.99265
C         38.67792        50.65020         0.72803
C         39.85927        52.84918         0.65553
C         38.63023        52.06625         0.58913
C         39.88072        54.21921         0.69221
C         42.44180        48.63611         1.41526
C         41.21719        47.94452         1.49938
C         42.40595        50.03910         1.18521
C         41.16726        50.68603         0.95021
C         42.31251        52.88724         1.20972
C         41.18681        52.13296         0.50517
C         42.32714        54.35747         0.85724
C         41.11011        54.96420         0.67563
C         44.89852        45.77261         1.47175
C         43.76537        46.48149         1.64183
C         44.90803        48.62817         1.34310
C         43.73010        47.93783         1.48118
C         44.95179        50.12683         1.45760
C         43.64386        50.80270         1.13582
C         44.85140        52.93004         0.87811
C         43.63088        52.17429         1.01154
C         44.83147        54.31711         0.84360
C         43.59558        55.06899         0.84608
C         44.86701        57.15992         0.59605
C         43.64393        56.45657         0.73960
C         47.55018        44.23058         0.91270
C         47.38606        45.69898         0.72152
C         46.14503        46.46149         1.05951
C         47.38903        48.67152         0.87568
C         46.23527        47.92048         1.51102
C         47.32417        50.03340         0.53128
C         46.12817        50.78392         0.78228
C         47.22026        52.87919         0.13811
C         46.10396        52.19855         0.62280
C         47.13910        54.35865        -0.16317
C         46.16882        55.03088         0.82546
C         47.34281        57.21194         0.41208
C         46.08210        56.51321         0.57072
C         47.43338        58.58342         0.72666
C         49.72319        44.35189        -0.28403
C         48.68696        43.61854         0.54456
C         49.87434        45.78965         0.20613
C         48.69026        46.43517         0.75261
C         49.85458        48.67628         0.29277
C         48.67527        47.98964         0.81697
C         49.74572        50.06166        -0.06368
C         48.49753        50.70554         0.02018
C         49.71194        52.86888        -0.26501
C         48.36411        52.12496        -0.48186
C         49.62577        54.35680        -0.53164
C         48.48959        55.06804        -0.22312
C         49.73688        57.22837        -0.09082
C         48.51557        56.51431        -0.01334
C         49.83403        58.58141         0.33768
C         48.64958        59.24657         0.72019
C         52.39449        41.53866        -0.38290
C         51.19024        42.16895        -0.40132
C         52.37732        44.39142        -0.27983
C         51.07720        43.63798        -0.45658
C         52.33660        45.80651         0.20854
C         51.04513        46.52171         0.14165
C         52.27782        48.67191        -0.17524
C         51.05662        47.96575         0.15968
C         52.15297        50.05761        -0.59156
C         50.94084        50.72972        -0.53159
C         52.16409        52.91524        -1.01728
C         50.83869        52.16094        -1.03271
C         52.14895        54.34857        -1.08289
C         50.85608        55.04673        -0.96070
C         52.22144        57.18683        -0.62551
C         50.90079        56.57702        -0.71222
C         52.33876        58.48550         0.06390
C         51.12715        59.25146         0.40305
C         52.52798        61.25264         0.77362
C         51.27628        60.57404         0.77852
C         55.02403        40.12300        -0.40539
C         54.93198        41.53714        -0.32414
C         53.66431        42.23985        -0.32298
C         54.85576        44.37923        -0.05011
C         53.64494        43.63467        -0.18957
C         54.84850        45.77600         0.21412
C         53.60491        46.59461         0.35727
C         54.72331        48.79959        -0.35128
C         53.53741        48.05499        -0.01416
C         54.66901        50.00839        -1.19184
C         53.30473        50.73819        -1.23840
C         54.51577        52.93081        -1.80604
C         53.31832        52.21119        -1.32573
C         54.57429        54.41449        -1.66973
C         53.32642        55.09194        -1.32113
C         54.56222        57.29300        -1.43807
C         53.34141        56.51616        -1.10014
C         54.67833        58.72041        -0.98240
C         53.65126        59.23343        -0.03091
C         54.99941        61.30924         0.33701
C         53.69332        60.66282         0.32617
C         55.16292        62.54182         1.00269
C         57.47752        40.16982        -0.32594
C         56.24213        39.46749        -0.37867
C         57.42126        41.60215        -0.31394
C         56.15598        42.27674        -0.25917
C         57.32847        44.44766        -0.10243
C         56.11311        43.69912        -0.11675
C         57.31553        45.85536         0.13096
C         56.07445        46.36495         0.52726
C         57.22264        48.92340        -0.36711
C         55.98210        48.46979         0.15334
C         57.15313        50.21341        -1.00397
C         55.90872        50.78302        -1.33878
C         57.10378        52.92593        -1.89589
C         55.87104        52.14649        -1.86802
C         57.01159        54.36196        -2.36398
C         55.76457        55.09007        -1.87544
C         57.11721        57.33187        -1.74746
C         55.82039        56.58209        -1.86679
C         57.21335        58.64012        -1.37081
C         56.00712        59.43780        -1.02586
C         57.40893        61.30113        -0.13263
C         56.14738        60.69026        -0.23394
C         57.57054        62.44449         0.67868
C         56.42438        63.07401         1.20616
C         60.06374        37.48368         0.28317
C         58.83803        38.10988         0.09853
C         60.00691        40.20920        -0.38528
C         58.73781        39.48014        -0.21572
C         59.95365        41.73766        -0.44769
C         58.62289        42.37935        -0.31420
C         59.81414        44.56109        -0.43241
C         58.56183        43.76444        -0.23333
C         59.70676        46.03126        -0.11680
C         58.50577        46.70314        -0.01274
C         59.61486        48.83727        -0.71695
C         58.44710        48.16862        -0.27265
C         59.57507        50.19227        -1.14235
C         58.37557        50.89340        -1.30794
C         59.56464        52.96577        -2.00268
C         58.34727        52.28432        -1.73991
C         59.52414        54.38978        -2.39799
C         58.27915        55.12096        -1.91958
C         59.70491        57.22453        -1.99902
C         58.31100        56.60276        -2.34502
C         59.66255        58.76479        -2.08180
C         58.58835        59.26647        -1.05000
C         59.93700        61.46165        -0.73928
C         58.52222        60.82737        -1.05253
C         60.03238        62.21530         0.58741
C         58.91708        62.86325         1.07090
C         60.27861        64.53057         2.23494
C         59.06255        63.94223         2.02046
C         62.66673        36.13662         0.72811
C         62.56476        37.53458         0.50999
C         61.30251        38.19506         0.26910
C         62.46575        40.37691         0.15137
C         61.28210        39.58720         0.01437
C         62.37993        41.84338         0.20535
C         61.14901        42.46716         0.02135
C         62.25235        44.73947         0.45792
C         60.99668        43.90450         0.25362
C         62.25170        46.15063         0.05023
C         60.97427        46.72649        -0.41036
C         62.24818        48.88811        -0.97035
C         60.92124        48.13546        -0.85214
C         62.04727        50.36539        -0.83187
C         60.85243        50.83998        -1.50281
C         62.09859        53.02743        -1.98174
C         60.83007        52.25481        -2.03389
C         62.07645        54.33214        -2.69240
C         60.78147        55.09826        -2.81773
C         62.16900        57.31991        -2.70875
C         60.81175        56.65136        -2.93194
C         62.21487        58.71336        -2.30317
C         61.03323        59.36178        -1.78720
C         62.39708        61.02388        -0.62394
C         61.11527        60.53356        -1.03033
C         62.53261        61.96240         0.43752
C         61.37089        62.47743         1.27463
C         62.68684        64.68773         1.94050
C         61.49324        63.94449         1.77220
C         62.74630        66.11059         2.16266
C         65.10586        36.26162         0.87125
C         63.88843        35.52429         0.92001
C         65.02665        37.64595         0.67793
C         63.76608        38.30430         0.51900
C         64.86757        40.53674         0.80584
C         63.68919        39.73014         0.39754
C         64.90682        41.98184         0.35951
C         63.56260        42.64819         0.44401
C         64.73449        44.85035         0.55232
C         63.53730        44.03575         0.47562
C         64.65000        46.23986         0.51601
C         63.41571        46.89733         0.13548
C         64.52548        49.10727        -0.02005
C         63.41568        48.32463        -0.18398
C         64.51493        50.57215        -0.30685
C         63.22655        51.21326        -0.74621
C         64.51066        53.33604        -1.26400
C         63.23903        52.52191        -1.43549
C         64.59561        54.51493        -2.19889
C         63.34679        55.08169        -2.76438
C         64.59079        57.04989        -3.32887
C         63.30876        56.54668        -2.94397
C         64.67362        59.04487        -2.81002
C         63.47130        59.40381        -2.13861
C         64.88190        60.99813        -0.89173
C         63.58469        60.46994        -1.19600
C         65.00632        61.99360         0.11274
C         63.82862        62.21071         0.86956
C         65.16179        64.71429         1.50402
C         63.97508        64.07526         1.84302
C         65.20067        66.12965         1.81697
C         63.95179        66.76370         2.17164
C         67.71716        33.57041         1.37631
C         66.49835        34.21034         1.21516
C         67.62053        36.35568         0.96230
C         66.41110        35.60378         1.01028
C         67.57754        37.78223         0.81589
C         66.27820        38.45218         0.46282
C         67.43014        40.63499         1.19892
C         66.16118        39.84331         1.05131
C         67.33899        42.16004         1.17574
C         66.05850        42.81859         0.87894
C         67.22496        45.00400         0.91785
C         66.01909        44.19912         0.77632
C         67.16336        46.42611         0.92597
C         65.83677        47.06220         0.83277
C         67.05400        49.26845         0.32091
C         65.77807        48.56227         0.55624
C         67.03230        50.55306        -0.32751
C         65.80391        51.22557        -0.65734
C         67.02630        53.17183        -1.52751
C         65.79357        52.51324        -1.20416
C         67.04268        54.48219        -2.09418
C         65.80327        55.15477        -2.42521
C         67.07083        57.20673        -3.48762
C         65.81069        56.45498        -3.07769
C         67.16131        58.66437        -2.84239
C         65.97829        59.35390        -2.37095
C         67.33218        60.99948        -1.10976
C         66.07734        60.45028        -1.45539
C         67.41278        62.15546        -0.26654
C         66.24429        62.69366         0.36337
C         67.57213        64.66000         1.03311
C         66.32518        63.98376         1.00732
C         67.60928        66.18619         1.15145
C         66.43637        66.78547         1.89388
C         67.78445        68.67295         2.72052
C         66.57994        68.07200         2.50459
C         70.31240        32.22046         1.65231
C         70.21990        33.62287         1.47409
C         68.93644        34.28543         1.33352
C         70.10450        36.43858         1.03601
C         68.88526        35.69172         1.12187
C         70.04210        37.87098         0.69488
C         68.74140        38.56505         0.78545
C         69.89510        40.79313         0.95621
C         68.71426        39.99263         0.89673
C         69.81445        42.23805         1.05497
C         68.57581        42.92340         1.00442
C         69.66420        45.12236         1.22977
C         68.48927        44.34462         0.98121
C         69.54834        46.53579         1.43782
C         68.31335        47.24543         1.10998
C         69.44774        49.51868         0.73129
C         68.25627        48.67308         0.78785
C         69.47852        50.68870        -0.09298
C         68.25820        51.22944        -0.61155
C         69.50266        53.15419        -1.56222
C         68.25948        52.50624        -1.24760
C         69.51585        54.41130        -2.24504
C         68.27034        55.09434        -2.48807
C         69.52674        56.82590        -3.59496
C         68.28991        56.34989        -3.15770
C         69.61305        58.90474        -3.26924
C         68.38375        59.33131        -2.64007
C         69.77444        60.99425        -1.41598
C         68.51120        60.46630        -1.73617
C         69.89363        62.10690        -0.51741
C         68.68394        62.74600        -0.02288
C         70.07665        64.40915         1.21826
C         68.74628        63.98024         0.65538
C         70.19437        65.88360         1.54001
C         68.97943        66.75537         1.56523
C         70.31567        68.27647         3.22292
C         69.05709        68.03653         2.35358
C         70.24233        69.20514         4.36459
C         72.72417        32.34696         1.72711
C         71.54021        31.59195         1.78012
C         72.66283        33.72001         1.55646
C         71.41988        34.38999         1.43375
C         72.52485        36.65063         1.39810
C         71.34879        35.82514         1.24060
C         72.50398        38.00457         1.27749
C         71.31653        38.70833         0.78177
C         72.33296        40.97496         1.01334
C         71.18771        40.18235         0.93054
C         72.25209        42.36467         1.14762
C         71.01166        43.01398         1.18663
C         72.01156        45.16094         1.92892
C         70.91064        44.44807         1.42040
C         71.86136        46.48822         2.31782
C         70.64649        47.13830         2.09184
C         71.77290        50.03706         1.40085
C         70.57995        49.32122         1.54917
C         71.85494        51.02570         0.43054
C         70.70281        51.39729        -0.29328
C         71.95243        53.15418        -1.54925
C         70.72683        52.55818        -1.15594
C         71.97246        54.33196        -2.26248
C         70.76726        55.00324        -2.60158
C         71.97182        57.08942        -3.40648
C         70.78442        56.28808        -3.24367
C         72.01265        58.46427        -3.26567
C         70.88926        59.27417        -2.88648
C         72.25573        60.72351        -1.28913
C         71.03541        60.58981        -2.15879
C         72.32371        61.76663        -0.41992
C         71.16802        62.57184        -0.13393
C         72.52295        64.27625         1.26059
C         71.31069        63.98597         0.39758
C         72.52626        65.29245         2.15823
C         71.40418        66.19902         2.34396
C         72.44194        67.42531         4.22689
C         71.40781        67.26582         3.23199
C         72.33909        68.34109         5.23315
C         71.20575        69.22236         5.31945
O         52.88316        46.09578         1.54755
O         51.76916        44.24105        -1.61479
O         53.37750        58.38592         1.12789
O         61.32755        44.40916         1.57307
O         70.81483        38.21942        -0.50849
O         55.02936        52.40122        -3.06711
O         46.49473        46.18255        -0.34087
O         69.52183        58.00857        -4.34939
O         64.01168        62.71143         2.16700
O         50.61291        56.00975        -2.02912
O         54.98888        59.61361        -2.08200
O         64.57771        58.29301        -3.99510
O         60.11613        40.95131        -1.66055
O         70.51157        48.42695         2.62389
O         65.25848        40.11047         2.15550
O         59.88138        54.54442        -3.82686
O         69.90435        66.77414         0.41086
O         70.10226        68.93943         1.92057
O         67.41590        41.39155         2.44447
O         60.94281        51.10852        -2.97720
O         60.92270        47.07462        -1.88435
O         48.94343        47.14007         1.99232
O         53.81155        49.97696        -2.37635
O         54.88814        57.14753        -2.85864
O         58.96585        58.88771         0.23764
O         65.60667        48.03901         1.91159
O         62.84882        54.29505        -3.94326
O         63.74849        51.34048         0.70175
O         56.04330        47.57695         1.22060
O         56.91626        54.33340        -3.81319
H         56.17786        53.71530        -4.03663
O         67.04034        57.37944        -4.91847
H         66.21945        57.87781        -5.13203
O         45.16191        50.37182         2.92066
H         44.31172        50.16626         3.36756
O         60.10092        44.46587        -1.86763
H         60.20938        45.37146        -2.24083
O         41.50210        52.12785        -0.91578
H         40.78914        51.64439        -1.38270
O         59.26375        59.15580        -3.40446
H         59.58958        58.46032        -4.04051
O         58.10188        61.27565        -2.35642
H         58.39896        60.61608        -3.03575
O         48.02862        52.05439        -1.89249
H         47.60532        52.90841        -2.14690
O         50.05471        52.74775         1.13922
H         49.33048        53.14454         1.66971
O         66.36003        38.71172        -0.98380
H         66.52345        37.85704        -1.43577
O         71.40878        64.79028        -0.80968
H         71.28176        65.73503        -0.56792
O         61.36051        61.67527         2.49717
H         62.23952        61.79869         2.92133
O         65.19970        41.85387        -1.08212
H         65.03794        42.72347        -1.50598
O         60.55209        56.98807        -4.31035
H         59.98112        56.26743        -4.67786
O         64.39112        53.92403         0.08115
H         64.22346        53.16239         0.69450
O         60.11963        56.84068        -0.67829
H         59.78002        57.56583        -0.04447
O         46.78650        54.85266         2.13827
H         46.24444        55.33975         2.79350
O         62.70459        48.76327        -2.35970
H         62.00570        49.13949        -2.94181
O         58.23654        55.03899        -0.48145
H         58.95588        55.63334        -0.13968
O         46.59636        54.47391        -1.51515
H         46.71005        55.40242        -1.81130
O         50.48210        52.13521        -2.43342
H         51.16733        51.62977        -2.91894
O         42.03184        52.81038         2.64127
H         42.72178        53.32461         3.10994
O         71.20352        61.59678        -3.22591
H         71.29322        62.47035        -2.78508
O         67.39686        66.61544        -0.22993
H         68.28630        66.65422        -0.65325
O         70.14509        63.72498         2.50370
H         70.07233        62.76177         2.33518
O         46.48307        47.88424         2.94740
H         46.34564        48.80439         3.27878
O         60.13756        62.54426        -1.69659
H         59.35747        62.50637        -2.31175
O         58.13011        56.70214        -3.77079
H         57.39122        56.10317        -4.03782
O         49.14823        44.43621        -1.61519
H         49.88711        44.65081        -2.22905
H         37.49096        48.82405         0.70651
H         35.33854        49.96074         0.32551
H         37.32887        53.78199         0.26249
H         35.25004        52.45443         0.11708
H         39.08023        48.01154         1.40376
H         38.94460        54.79582         0.70600
H         41.19959        46.86668         1.70548
H         41.03875        56.04938         0.51306
H         44.88739        44.67544         1.54698
H         42.83981        45.95243         1.90477
H         44.81838        58.24800         0.44626
H         42.71378        57.03952         0.72061
H         46.75738        43.66666         1.42805
H         46.53472        59.12609         1.04987
H         48.81300        42.54165         0.73142
H         48.67888        60.30024         1.02566
H         52.40155        40.43973        -0.37161
H         50.26946        41.56820        -0.37729
H         52.52572        62.30584         1.08549
H         50.39531        61.16289         1.06839
H         54.10987        39.51795        -0.47454
H         54.29312        63.06171         1.42517
H         56.24572        38.36992        -0.42809
H         56.50776        64.00351         1.78281
H         60.06390        36.40740         0.50023
H         57.92523        37.50727         0.20493
H         60.32367        65.45180         2.83298
H         58.17525        64.39314         2.48154
H         61.76163        35.51474         0.74217
H         61.82345        66.68625         2.31713
H         63.90540        34.43943         1.08647
H         63.94919        67.84714         2.35361
H         67.71679        32.48469         1.53804
H         65.58628        33.60118         1.25798
H         67.81553        69.67510         3.16830
H         65.67561        68.59397         2.84872
H         69.40166        31.60800         1.68868
H         69.41394        69.92530         4.40540
H         73.69850        31.84708         1.81687
H         71.58887        30.50284         1.91667
H         73.60198        34.28639         1.50301
H         73.45422        36.17826         1.74432
H         73.38626        38.58558         1.58169
H         73.32639        40.50859         0.96568
H         73.18563        42.93974         1.20394
H         72.96894        44.65655         2.11154
H         72.67463        47.02252         2.82503
H         72.62138        49.81968         2.06180
H         72.79456        51.57899         0.30805
H         72.90544        52.67031        -1.29787
H         72.93643        54.76347        -2.56335
H         72.93891        56.56864        -3.48452
H         73.00920        58.93298        -3.25374
H         73.14539        60.11152        -1.49411
H         73.26933        61.98640         0.09713
H         73.44409        63.69295         1.11653
H         73.44843        65.48415         2.72633
H         73.31065        66.75341         4.20257
H         73.12530        68.41050         5.99739
H         71.14601        69.93286         6.15565
