         576
 CSIRO Nanostructure Databank - Neutral Graphene Oxide Data Set
C          5.92935        18.89445         1.26213
C          5.92867        20.22827         0.86577
C          4.73384        20.85147         0.29095
C          5.95118        23.00468         0.02363
C          4.73339        22.12765        -0.16268
C          6.00699        24.32425        -0.70723
C          8.41944        14.66441         1.14077
C          8.35257        15.97606         1.56975
C          7.15915        16.73290         1.32705
C          8.27850        18.67747         2.21680
C          7.07771        18.08322         1.64412
C          8.26384        20.67225         1.45004
C          7.15505        20.99382         0.72739
C          8.44363        23.03346         0.04559
C          7.21861        22.17747        -0.22169
C          8.42849        24.37692        -0.22726
C          7.20470        25.04091        -0.70637
C          8.48257        27.16905        -0.97701
C          7.28756        26.39722        -1.11781
C          8.50251        28.54034        -1.24610
C         10.84657        10.45245         0.24277
C         10.84835        11.78547         0.63648
C          9.63899        12.57826         0.68662
C         10.79722        14.41205         1.89203
C          9.59182        13.84312         1.23503
C         10.81053        15.85155         2.32444
C          9.47340        16.61513         2.38834
C         10.76792        18.99255         2.50742
C          9.53415        18.12693         2.20105
C         10.82804        20.33268         1.67963
C          9.63656        20.97040         1.04711
C         10.88599        23.14814         0.69782
C          9.70454        22.34689         0.38453
C         10.83826        24.51050         0.42502
C          9.65648        25.14963        -0.12754
C         10.96252        27.21718        -0.56045
C          9.67992        26.48415        -0.49929
C         10.95830        28.68910        -0.79548
C          9.63823        29.43027        -0.79932
C         11.02063        31.43332        -1.50565
C          9.80717        30.75061        -1.51203
C         11.11488        32.78248        -2.01646
C         13.26003         6.14712        -0.46047
C         13.20599         7.41893         0.36433
C         12.02586         8.29919         0.04562
C         13.31595        10.34934         0.49250
C         12.04863         9.66045         0.27499
C         13.32237        11.73806         0.80707
C         12.09375        12.40236         1.01603
C         13.42534        14.51570         1.67460
C         12.09277        13.69045         1.67687
C         13.36080        15.97695         1.78257
C         12.12190        16.62144         2.32910
C         13.30865        18.86071         1.96717
C         12.07673        18.14702         2.37337
C         13.24713        20.37482         2.22082
C         12.00540        21.03061         1.59865
C         13.21861        23.20225         1.37074
C         12.04655        22.46389         1.23085
C         13.24295        24.66434         1.27453
C         11.97695        25.36914         0.77642
C         13.36408        27.33558         0.13984
C         12.16569        26.65671         0.09363
C         13.48732        28.67296        -0.56942
C         12.18255        29.47141        -0.34464
C         13.44797        31.51794        -0.99938
C         12.23634        30.83148        -0.99880
C         13.48646        32.90351        -1.39722
C         12.28155        33.51826        -1.92448
C         13.46076        35.67106        -2.17190
C         12.36549        34.88476        -2.40958
C         13.63468        36.98546        -2.77085
C         15.71892         6.11598        -0.66328
C         14.40309         5.51991        -0.82010
C         15.78790         7.49236        -0.12309
C         14.53368         8.18073         0.35014
C         15.76100        10.37212         0.24712
C         14.53519         9.65935         0.36666
C         15.76606        11.79533         0.42133
C         14.56760        12.46849         0.81966
C         15.72647        14.65520         0.77257
C         14.58115        13.86681         1.05593
C         15.71379        16.07032         0.98848
C         14.50871        16.72573         1.47882
C         15.72846        18.93118         1.40377
C         14.46871        18.17783         1.67320
C         15.82181        20.34972         1.87316
C         14.50654        21.03047         1.65635
C         15.78217        23.23446         1.22752
C         14.49164        22.47371         1.33100
C         15.72958        24.69372         1.52867
C         14.50471        25.40350         1.12029
C         15.80416        27.48058         0.80543
C         14.54847        26.72285         0.71393
C         15.81689        28.87824         0.37099
C         14.69757        29.48763        -0.16863
C         15.86582        31.63015        -0.55548
C         14.68519        30.88913        -0.55944
C         15.88867        33.04486        -0.84324
C         14.65276        33.65398        -1.23708
C         15.82215        35.95204        -1.15466
C         14.58635        35.12129        -1.38271
C         15.81828        37.42921        -1.57078
C         14.74380        37.73752        -2.59619
C         18.15713         6.18648        -0.99832
C         16.88482         5.49000        -1.01595
C         18.16214         7.62551        -0.89922
C         16.95632         8.31636        -0.47782
C         18.20449        10.43184        -0.38363
C         16.94550         9.67298        -0.18926
C         18.18652        11.91896        -0.25171
C         16.92973        12.58813         0.16128
C         18.01442        14.79561        -0.22206
C         16.89346        13.97439         0.28684
C         18.08903        16.18913         0.24431
C         16.96307        16.78456         0.78072
C         18.29856        18.96404         1.03684
C         16.98535        18.25277         0.99687
C         18.37927        20.38169         1.38252
C         17.10846        21.08626         1.69026
C         18.42719        23.28042         1.27597
C         17.09297        22.53071         1.29097
C         18.29321        24.76507         1.57689
C         17.00279        25.46829         1.66614
C         18.18189        27.71231         1.65270
C         16.94626        26.90873         1.32329
C         18.21447        29.05720         0.97579
C         17.07176        29.61449         0.47088
C         18.40864        31.67732        -0.32394
C         17.12476        30.92090        -0.24356
C         18.42585        33.10544        -0.88773
C         17.08335        33.81236        -0.80852
C         18.32528        35.93532        -1.10564
C         17.10874        35.22232        -1.01388
C         18.35239        37.31922        -1.55538
C         17.18050        37.95144        -1.93892
C         20.60478         6.22694        -1.18680
C         19.36895         5.51898        -1.15270
C         20.59298         7.66743        -1.27316
C         19.33867         8.33839        -1.15806
C         20.50512        10.58508        -1.48877
C         19.18539         9.82761        -1.36847
C         20.46689        12.05106        -1.21255
C         19.30177        12.68504        -0.85688
C         20.44735        14.97861        -1.25779
C         19.19686        14.16422        -0.89530
C         20.56691        16.31081        -0.53582
C         19.45974        16.82389         0.37324
C         20.57481        19.13909         0.21917
C         19.39063        18.32175         0.52665
C         20.77022        20.35847         1.03794
C         19.58771        21.05741         1.51807
C         20.82981        23.39372         1.69561
C         19.57787        22.54947         2.02945
C         20.72589        24.77449         1.36809
C         19.46943        25.52331         1.49758
C         20.80654        27.60853         1.57893
C         19.46354        26.92901         1.45006
C         20.79724        29.18773         1.53579
C         19.41375        29.92228         1.30647
C         20.72435        31.89815         0.49408
C         19.55997        31.16057         0.43864
C         20.69837        33.35654         0.26686
C         19.54727        33.96609        -0.37021
C         20.81947        36.06158        -0.70947
C         19.56829        35.31528        -0.70173
C         20.82440        37.42591        -1.22548
C         19.61203        38.00285        -1.64031
C         23.05520         6.25251        -1.07364
C         21.84041         5.55005        -1.15633
C         23.05297         7.69967        -1.13770
C         21.82105         8.37961        -1.34872
C         23.14511        10.60957        -1.57709
C         21.81727         9.84093        -1.61631
C         22.96363        12.02119        -1.02487
C         21.71212        12.80459        -1.25296
C         22.98524        14.93460        -1.24611
C         21.71946        14.16816        -1.14082
C         22.99314        16.38060        -1.01248
C         21.78002        17.01773        -0.65221
C         23.06286        19.19148        -0.29834
C         21.77452        18.48669        -0.39723
C         23.21596        20.31023         0.49147
C         22.08264        20.71310         1.28398
C         23.15412        23.34416         0.79916
C         22.11777        22.84644         1.63431
C         22.85284        24.61820         0.26396
C         21.82271        25.43035         0.78259
C         23.18101        27.64658         0.53644
C         21.85692        26.92152         0.67570
C         23.22021        29.10704         0.80322
C         21.97999        29.84434         0.87917
C         23.20678        31.99831         0.58045
C         21.98199        31.25210         0.72343
C         23.25656        33.35680         0.35874
C         22.01007        34.13754         0.26839
C         23.31519        36.10981        -0.58753
C         22.02730        35.45881        -0.37325
C         23.31155        37.52036        -1.01886
C         22.04944        38.13178        -1.28929
C         25.49075         6.22477        -0.72215
C         24.28657         5.55394        -0.92415
C         25.49291         7.68105        -0.68358
C         24.27598         8.40686        -0.94110
C         25.46553        10.54049        -0.68261
C         24.29759         9.85394        -0.92409
C         25.55630        12.02316        -0.95898
C         24.23348        12.74776        -0.81189
C         25.58000        14.92772        -0.94009
C         24.30392        14.20283        -1.14578
C         25.62868        16.34085        -1.53307
C         24.24987        17.12384        -1.32511
C         25.34037        19.53609        -1.13026
C         24.17423        18.64854        -1.08536
C         25.58557        20.60623        -0.32202
C         24.52806        21.10319         0.64944
C         25.59762        23.34979         0.25914
C         24.40879        22.64541         0.49729
C         25.68412        24.80046         0.34375
C         24.66099        25.63409        -0.02982
C         25.66248        27.62506         0.87430
C         24.51800        26.99557         0.45460
C         25.66352        29.07247         1.10161
C         24.41464        29.77188         0.74302
C         25.76318        31.88341         0.27124
C         24.45179        31.21321         0.47101
C         25.81183        33.37361         0.27502
C         24.52888        34.15876         0.46376
C         25.81021        36.23470        -0.33198
C         24.50026        35.46667        -0.30962
C         25.81520        37.47015        -1.25289
C         24.50601        38.22242        -1.13492
C         27.91468         6.17170        -0.27592
C         26.73505         5.52249        -0.61569
C         27.84669         7.60273         0.07710
C         26.65860         8.35554        -0.32678
C         27.80944        10.50766         0.35226
C         26.79194         9.83077        -0.59121
C         27.85823        12.03342         0.17788
C         26.53805        12.78235        -0.03105
C         27.98532        14.88996        -0.40352
C         26.68712        14.23270        -0.52360
C         27.94477        16.38300        -0.18698
C         26.86926        17.07604        -1.01052
C         28.21568        19.15465        -0.80129
C         27.12440        18.37207        -1.32664
C         28.11194        20.64523        -0.81251
C         26.85412        21.33322        -0.39013
C         28.12487        23.43453         0.03196
C         26.87403        22.65882         0.00886
C         28.15544        24.79168         0.33507
C         26.93816        25.47735         0.86715
C         28.24720        27.63635         0.85848
C         26.95651        26.96003         0.44648
C         28.25969        29.01095         1.50620
C         26.95697        29.80552         1.22911
C         28.22039        31.93665         0.79413
C         27.06183        31.06933         0.37459
C         28.26626        33.27569         0.13764
C         26.98743        34.01473         0.06704
C         28.33011        36.14201        -0.37280
C         27.05148        35.36198        -0.61034
C         28.30328        37.56577        -0.68839
C         27.11750        38.21617        -1.01634
C         30.38872         6.21256        -0.11616
C         29.18762         5.52432        -0.25477
C         30.42894         7.64404         0.06511
C         29.17498         8.37142         0.30994
C         30.36443        10.48811        -0.06614
C         29.17824         9.83876         0.18241
C         30.37083        11.93645        -0.39377
C         29.14386        12.72829        -0.07476
C         30.47662        14.84165         0.06207
C         29.15540        14.19860        -0.30311
C         30.48852        16.32909        -0.19897
C         29.30994        17.02489        -0.35099
C         30.62497        19.14588        -0.20936
C         29.35347        18.46159        -0.46346
C         30.65786        20.62626        -0.29256
C         29.40531        21.38931        -0.60514
C         30.61580        23.43889         0.16048
C         29.38278        22.77507        -0.12922
C         30.64920        24.81365         0.28864
C         29.39391        25.59594         0.03092
C         30.71416        27.65462         0.77320
C         29.42194        26.98067         0.63653
C         30.69326        29.10360         0.93834
C         29.52579        29.77748         1.14815
C         30.75442        32.03605         1.01525
C         29.49665        31.25834         1.15341
C         30.75529        33.36899         0.71168
C         29.55002        34.03196         0.14245
C         30.78042        36.20431        -0.06278
C         29.51363        35.50461        -0.05227
C         30.77418        37.60098        -0.43773
C         29.57258        38.25227        -0.69545
C         32.83163         6.17042        -0.32639
C         31.64913         5.52276        -0.36023
C         32.92183         7.60087         0.13617
C         31.62605         8.35512        -0.02971
C         32.86286        10.47718        -0.33848
C         31.63796         9.78293        -0.14590
C         32.93360        11.91424        -0.41859
C         31.66431        12.66057        -0.62256
C         32.97384        14.83383        -0.29279
C         31.66776        14.18892        -0.70768
C         32.99182        16.19845        -0.23986
C         31.77658        16.98936        -0.28533
C         33.11873        19.08671        -0.27822
C         31.86911        18.38002        -0.32712
C         33.25746        20.60081        -0.37020
C         31.93295        21.39723        -0.53016
C         33.15928        23.29863         0.56395
C         31.82013        22.58479         0.52196
C         33.20698        24.76078         0.37866
C         31.92490        25.54830         0.27714
C         33.20077        27.69137         0.73544
C         31.92312        26.99922         0.57925
C         33.22000        29.05215         0.90634
C         31.96899        29.85713         0.63510
C         33.31241        31.99862         1.20762
C         31.99943        31.25836         1.23247
C         33.30905        33.48493         1.05081
C         31.98350        34.18589         0.80551
C         33.25361        36.20109         0.06434
C         31.98270        35.54650         0.22579
C         33.22677        37.59415        -0.32088
C         32.05482        38.26343        -0.53307
C         34.11946         8.34837        -0.35724
C         35.34377        10.45542        -0.54789
C         34.11774         9.73817        -0.41550
C         35.39725        11.85807        -0.42883
C         34.14950        12.58465        -0.34847
C         35.52390        14.72265        -0.28866
C         34.21177        14.04257         0.05393
C         35.54018        16.16711        -0.59804
C         34.26787        16.93159        -0.42955
C         35.55803        19.05769         0.10044
C         34.30495        18.38368        -0.19389
C         35.53341        20.39307         0.54997
C         34.18234        21.05418         0.81768
C         35.51074        23.25475         1.39154
C         34.26330        22.57463         0.84929
C         35.57204        24.73785         1.04703
C         34.46499        25.45549         0.73031
C         35.76314        27.59487         0.92362
C         34.49857        26.93883         0.42978
C         35.78594        29.05834         1.11096
C         34.48519        29.79971         1.13408
C         35.75135        31.92056         0.66455
C         34.53892        31.25352         0.91431
C         35.70932        33.35459         0.42675
C         34.54986        34.11734         0.53927
C         34.46665        35.50424         0.19312
C         36.63324        12.55084        -0.40821
C         37.98126        14.65952        -0.35213
C         36.72434        13.97483        -0.30812
C         38.15216        15.97445         0.24205
C         36.78949        17.03681        -0.75501
C         37.99276        19.01753         0.26822
C         36.80708        18.36284        -0.05157
C         37.98852        20.42779         0.48362
C         36.74217        21.12303         0.65136
C         37.93603        23.24147         0.72999
C         36.75976        22.53172         0.93348
C         38.14141        24.63700         1.23425
C         36.84592        25.43716         1.50988
C         38.20846        27.59274         1.11631
C         36.91766        26.89672         1.09796
C         38.22517        29.01447         0.87926
C         37.04756        29.78603         0.84081
C         36.98113        31.17994         0.62314
C         39.16402        16.88670        -0.19832
C         40.48693        19.06358        -0.07582
C         39.30644        18.25180         0.40706
C         40.54449        20.49817         0.40693
C         39.18806        21.16926         0.27688
C         41.00533        23.63147         0.23478
C         39.02791        22.54305         0.15290
C         40.84213        24.75785         0.96608
C         39.48176        25.38318         1.22402
C         39.39408        26.86331         1.16854
C         41.79263        21.27963        -0.00425
C         42.05255        22.60497         0.10997
O         28.83023        21.24381        -1.95121
O         32.70015        31.47813         2.46460
O         26.09743        29.75364         2.39430
O         18.02247        30.74635        -1.42616
O         12.32029        25.34993         2.19078
O         21.34374        29.65461         2.77668
O         28.59258        31.86199         2.18196
O         28.65011        12.53775         1.33106
O         38.96096        24.72169         2.44066
O         21.06176        10.24947        -2.80647
O         28.37365         7.87112         1.42100
O         26.25063        19.14085        -2.12013
O         23.68314        10.77953        -2.88442
O         18.74017        11.02143         0.82603
O          9.83080        21.10873        -0.40957
O         30.87751        12.12722        -1.76025
O         21.16535        34.08548         1.47215
O         36.61972        25.45861         2.90342
O         20.80908        19.23541        -1.23547
O         29.07312        33.31328        -1.09137
O         11.16827        27.81035        -1.92978
O         25.01638        31.43481        -0.92091
O         16.20996        25.04153         2.86205
O         23.90658        18.06407        -2.40038
O         12.32317        17.34611         3.57956
O         14.38511        21.41999         0.27168
O         18.06931        14.63828        -1.72378
O         39.91281        23.30569        -0.59645
O         22.23011        27.45631        -0.60529
O         16.58361        20.74148         3.03701
O         32.63806        34.17953         2.13194
O         10.70474        14.77270         3.30481
O         31.56170        22.08813         1.78679
O         16.45048        22.83127        -0.00707
O         30.60260        20.01598         1.01804
O          8.12400        19.99739         2.65513
O         23.61548        25.10750        -0.80025
O         34.74445        16.52853        -1.81972
O         12.95333        13.77040         2.83823
O         32.70374        25.17978        -0.95932
O         13.15513        20.54915         3.61140
O         16.10583        18.88957        -0.02255
O         23.45924        12.29725         0.33703
O         35.16919        29.42889         2.40068
O         14.86458        35.75257        -0.05862
O         22.33724        21.63519         2.31458
O         23.73992        14.52202        -2.44988
O         15.46673         7.59661         1.32498
O         35.42148        23.16093         2.82587
H         35.89806        23.96966         3.19262
O         33.68396        20.53873         2.04605
H         32.83933        21.04646         2.24712
O         25.82135        37.13560        -2.67086
H         26.39421        36.33855        -2.80090
O         28.35501        28.77616         2.93034
H         27.47622        28.99306         3.32500
O         27.35771         9.89840        -1.93886
H         26.95265        10.68502        -2.40176
O         20.33693        15.33652        -2.66200
H         19.37447        15.42929        -2.85824
O         18.68723        33.00283        -2.32581
H         18.33581        32.12063        -2.60332
O         25.89800        12.83979         1.25708
H         26.58745        13.05833         1.92033
O         31.85537        21.96515        -1.83189
H         32.76722        22.22141        -2.10157
O         21.24617        27.21690         2.90647
H         21.38956        28.07860         3.39617
O         19.29154        22.55721         3.42481
H         20.04337        22.15879         3.90891
O         34.60624        27.05709        -1.03304
H         33.91697        26.44862        -1.40810
O         40.74507        20.41630         1.87087
H         40.07022        19.78237         2.21984
O         39.43505        18.05574         1.89910
H         40.28435        17.58447         2.04737
O         25.78680        16.19312        -2.95219
H         25.32838        16.94703        -3.38735
O         25.94659        12.12075        -2.35095
H         25.14960        11.71903        -2.84393
O          5.99937        23.36932         1.44223
H          5.15334        23.80620         1.67351
O         12.97998         6.96006         1.73315
H         13.87526         6.83715         2.12927
O         18.51277         9.97777        -2.65351
H         19.21343         9.90084        -3.34346
O         12.07907        29.67323         1.08529
H         11.15200        29.94787         1.28326
O         37.17802        17.12326        -2.04188
H         36.68562        16.47262        -2.58877
O         34.05242        20.86328        -1.56059
H         33.75254        20.26164        -2.27440
O         10.72478        19.42480         3.87402
H         11.61193        19.87021         4.04890
O         26.90583        27.01494        -1.00658
H         27.76652        26.68129        -1.36990
O         18.15309        27.94675         3.09911
H         18.45361        28.88284         3.25192
O         25.97503        36.76470         1.00973
H         25.65490        36.07658         1.64572
O         27.56803        16.55592         1.22029
H         28.34041        16.30606         1.77177
O         19.04725        30.46850         2.61824
H         19.92470        30.53732         3.10155
O         30.67573        14.63949         1.48602
H         30.05526        13.94681         1.80428
O         33.11547         7.52647         1.60932
H         33.94508         7.02870         1.77102
O         13.70019        28.44140        -1.98097
H         12.87225        28.03772        -2.34542
O         27.32998        10.27010         1.68379
H         27.91355        10.76051         2.30179
O         29.37096        25.82669        -1.44278
H         29.48057        24.95484        -1.88319
O         31.50168        14.56095        -2.09576
H         31.08191        13.79749        -2.55818
O         15.44728        38.22092        -0.39828
H         14.91429        37.61752         0.17484
O         25.00363        20.84803         1.99484
H         24.30628        21.16849         2.61161
O         31.98585        30.11283        -0.81099
H         31.89856        29.25074        -1.27182
O          9.01074        16.48935         3.76576
H          9.72238        16.83546         4.34748
O         27.40625        30.58890        -0.94365
H         26.57158        30.55515        -1.47195
O         34.18513        13.96228         1.53812
H         34.29615        14.86957         1.89497
O         19.94041        16.35100         1.70529
H         19.25816        16.58302         2.37258
O         24.58756        34.56845         1.89360
H         23.66938        34.76120         2.18764
O         27.08726        34.96292        -2.01938
H         27.86152        34.34957        -2.11356
O          9.36545        29.75919         0.62159
H          8.55183        30.30640         0.65015
O         26.97073        25.43034         2.31503
H         27.11901        24.50257         2.59412
O         37.60543        16.13895         1.49534
H         38.04972        16.91367         1.92873
O          7.26232        21.75576        -1.59732
H          8.12920        21.30928        -1.72960
O         18.89844        23.26581        -0.10087
H         18.10387        23.29512        -0.68638
H          4.98393        18.34134         1.13129
H          3.82111        20.24045         0.20949
H          3.81906        22.56009        -0.59901
H          5.07628        24.81514        -1.03559
H          7.53895        14.23062         0.64059
H          6.33494        16.24380         0.78523
H          6.37598        26.89712        -1.48062
H          7.57649        29.02308        -1.59781
H          9.89475         9.95665         0.00261
H          8.72538        12.15329         0.24410
H          8.91359        31.25232        -1.91588
H         10.20990        33.24872        -2.43473
H         12.29833         5.63796        -0.62791
H         11.06452         7.80322        -0.15851
H         11.52304        35.28335        -2.99565
H         12.83958        37.33735        -3.44683
H         14.35239         4.53435        -1.30904
H         14.81323        38.71409        -3.09949
H         16.86669         4.44479        -1.36070
H         17.22916        38.98449        -2.31766
H         19.38506         4.41992        -1.19771
H         19.61527        39.03673        -2.01863
H         21.85212         4.45049        -1.12405
H         22.03767        39.17813        -1.63240
H         24.27481         4.45386        -0.93714
H         24.47628        39.28185        -1.43784
H         26.74779         4.43996        -0.81304
H         27.16498        39.28233        -1.29256
H         29.22038         4.44403        -0.46428
H         29.58755        39.32071        -0.96074
H         33.76910         5.62932        -0.52812
H         31.60557         4.45595        -0.62767
H         34.18569        38.12239        -0.42864
H         32.07284        39.32824        -0.80876
H         35.07818         7.80917        -0.42115
H         36.28112         9.88514        -0.63124
H         36.63856        33.84720         0.10207
H         35.40010        36.03446        -0.05147
H         37.56314        11.96821        -0.48467
H         38.80120        14.24712        -0.95659
H         39.19948        29.50989         0.73905
H         37.91574        31.73704         0.45402
H         39.56515        16.73289        -1.21185
H         41.45152        18.52181        -0.04495
H         41.64332        25.10440         1.63659
H         40.34344        27.41276         1.05461
H         42.67119        20.62684        -0.14793
H         43.09901        22.94091         0.01345
