         600
 CSIRO Nanostructure Databank - Neutral Graphene Oxide Data Set
C         22.96699        27.40705         0.24731
C         22.95449        28.77902         0.29409
C         22.94816        31.71101         0.43012
C         22.94797        33.08223         0.51929
C         22.96196        36.00956         0.66771
C         22.96502        37.38491         0.72084
C         22.97789        40.31797         0.80510
C         22.98506        41.69348         0.74040
C         23.00460        44.63768         0.55581
C         23.00276        46.00878         0.43426
C         25.38472        24.57585        -0.02148
C         24.20611        25.26689         0.09369
C         25.42256        27.39797         0.23271
C         24.19822        26.69030         0.19923
C         25.41182        28.83701         0.29546
C         24.16733        29.53140         0.30944
C         25.39279        31.68139         0.37771
C         24.16253        30.96802         0.36733
C         25.38890        33.10840         0.45866
C         24.16337        33.82466         0.54367
C         25.41189        35.96140         0.72862
C         24.17148        35.26124         0.64451
C         25.41177        37.40869         0.79317
C         24.17988        38.12326         0.75804
C         25.41156        40.27329         0.61747
C         24.18331        39.56627         0.73499
C         25.41999        41.70110         0.50402
C         24.19310        42.42212         0.56802
C         25.41936        44.50725         0.12388
C         24.20164        43.85629         0.42414
C         25.38136        45.93298        -0.22977
C         24.18091        46.71822         0.06799
C         25.45828        48.80558        -0.11490
C         24.24086        48.11427        -0.00888
C         27.92715        23.11871        -0.37086
C         27.88648        24.54565        -0.11758
C         26.64337        25.25453        -0.02326
C         27.89702        27.37735         0.11599
C         26.65973        26.67091         0.13501
C         27.91973        28.81537         0.57317
C         26.63539        29.56515         0.33053
C         27.88845        31.70665         0.32420
C         26.63894        30.96758         0.35969
C         27.86997        33.10253         0.33483
C         26.63275        33.82172         0.46914
C         27.90922        35.89858         0.91971
C         26.62626        35.22330         0.65834
C         27.89920        37.44426         1.02649
C         26.63095        38.14471         0.81049
C         27.89359        40.26418         0.57297
C         26.64832        39.54986         0.64511
C         27.89685        41.68024         0.41371
C         26.66095        42.40154         0.35202
C         27.91377        44.52901         0.04601
C         26.66099        43.81181         0.13849
C         27.95368        45.94252        -0.08109
C         26.72149        46.69908        -0.34142
C         27.96016        48.83912        -0.03034
C         26.70003        48.15459        -0.14553
C         28.02727        50.26010         0.05784
C         30.38026        23.03877        -0.16234
C         29.08519        22.42301        -0.49055
C         30.37855        24.55490         0.01017
C         29.09425        25.27108        -0.10619
C         30.35954        27.43411        -0.41142
C         29.09443        26.68756        -0.06504
C         30.37500        28.87659         0.02386
C         29.16793        29.57477         0.19654
C         30.38638        31.70574         0.17116
C         29.14534        30.98618         0.22201
C         30.39798        33.12104         0.19854
C         29.11670        33.87666        -0.02962
C         30.36726        35.96509         0.60158
C         29.16470        35.26411         0.54846
C         30.37532        37.41280         0.75763
C         29.15901        38.14245         0.79311
C         30.36897        40.26600         0.57936
C         29.13570        39.55307         0.62900
C         30.37156        41.68343         0.45140
C         29.13446        42.39199         0.34095
C         30.38635        44.51524         0.15937
C         29.14327        43.81071         0.18621
C         30.40313        45.93683         0.06111
C         29.17293        46.65866        -0.01602
C         30.43061        48.79321        -0.06006
C         29.18323        48.10074        -0.04586
C         30.46793        50.22616        -0.02882
C         29.22873        50.92810         0.06256
C         32.86154        20.39020        -1.25966
C         31.69974        21.06088        -1.01641
C         32.85787        23.12365        -0.34997
C         31.67311        22.39550        -0.48915
C         32.87464        24.56098        -0.20109
C         31.65233        25.28941        -0.14101
C         32.87003        27.40816        -0.10025
C         31.64641        26.68998        -0.14246
C         32.86260        28.84590        -0.01793
C         31.61847        29.56456         0.03686
C         32.86010        31.69326         0.21596
C         31.62354        30.98541         0.16033
C         32.85497        33.11639         0.29767
C         31.61692        33.83369         0.28514
C         32.84853        35.97080         0.40456
C         31.61667        35.26816         0.39654
C         32.85501        37.41478         0.60560
C         31.60095        38.12038         0.72637
C         32.81943        40.27702         0.77401
C         31.60181        39.55602         0.71248
C         32.84068        41.67315         0.59272
C         31.61130        42.38577         0.42086
C         32.86274        44.49904         0.19821
C         31.62145        43.80166         0.26323
C         32.87424        45.91472         0.02727
C         31.64506        46.63630        -0.00084
C         32.89705        48.74751        -0.24354
C         31.65855        48.06060        -0.09497
C         32.92089        50.17545        -0.34227
C         31.71158        50.91101        -0.12839
C         32.96596        53.00675        -0.23581
C         31.82336        52.34303         0.05553
C         35.45177        18.93913        -1.53131
C         35.42072        20.30663        -1.21164
C         34.13891        20.92372        -0.79588
C         35.39964        23.15918        -0.52646
C         34.14260        22.40652        -0.38053
C         35.36834        24.56612        -0.36305
C         34.11113        25.26987        -0.21365
C         35.34620        27.41973        -0.08418
C         34.10792        26.69195        -0.11914
C         35.33417        28.83796         0.04172
C         34.09100        29.55367         0.07574
C         35.33533        31.69187         0.29134
C         34.09685        30.97924         0.18853
C         35.33275        33.11580         0.38874
C         34.09020        33.82832         0.35479
C         35.34589        35.96069         0.29650
C         34.06767        35.25012         0.33759
C         35.32772        37.46484         0.51294
C         34.04544        38.11386         0.74864
C         35.34985        40.26383         0.87185
C         34.06216        39.54778         1.22078
C         35.33129        41.67097         0.62668
C         34.09449        42.38198         0.52980
C         35.33818        44.48158         0.15330
C         34.09816        43.78203         0.29605
C         35.34329        45.89057        -0.08488
C         34.11242        46.60789        -0.12305
C         35.35089        48.70975        -0.53808
C         34.12165        48.02303        -0.30507
C         35.35247        50.12890        -0.74191
C         34.13990        50.84665        -0.62232
C         35.42767        52.99885        -0.92069
C         34.08169        52.31206        -0.97463
C         35.50462        54.39383        -0.84779
C         37.87547        18.97524        -1.67985
C         36.65212        18.27670        -1.74334
C         37.84319        20.36835        -1.42764
C         36.62693        21.04909        -1.15806
C         37.81811        23.22110        -0.80135
C         36.61385        22.48081        -0.82931
C         37.82830        24.60126        -0.48308
C         36.59181        25.29854        -0.33793
C         37.82067        27.43992        -0.14244
C         36.58649        26.71924        -0.17343
C         37.79325        28.84410        -0.00724
C         36.56834        29.55414         0.11718
C         37.80820        31.69357         0.44335
C         36.57126        30.98045         0.27409
C         37.81504        33.10838         0.62277
C         36.57444        33.82700         0.54651
C         37.81010        35.95874         0.74259
C         36.58869        35.23349         0.57778
C         37.82190        37.37555         0.85327
C         36.53429        38.09193         1.17285
C         37.80365        40.24560         0.74292
C         36.55426        39.57285         0.89962
C         37.80257        41.65484         0.54298
C         36.56595        42.36254         0.46324
C         37.80567        44.46922         0.08584
C         36.56798        43.77302         0.23209
C         37.80604        45.86945        -0.18483
C         36.57446        46.58036        -0.27798
C         37.79841        48.65932        -0.85649
C         36.57671        47.98540        -0.55762
C         37.76913        50.04592        -1.19909
C         36.58406        50.79501        -1.07415
C         37.82296        52.93800        -1.42589
C         36.60964        52.25426        -1.16044
C         37.87621        54.34893        -1.38971
C         36.71342        55.05687        -1.02729
C         40.41953        16.24773        -2.29758
C         39.21178        16.92534        -2.21529
C         40.37522        18.97386        -1.57271
C         39.15497        18.28588        -1.84377
C         40.38001        20.37895        -1.32659
C         39.11473        21.11143        -1.48285
C         40.35195        23.21175        -0.70393
C         39.10089        22.58801        -1.15797
C         40.31888        24.58935        -0.35481
C         39.07634        25.30455        -0.34391
C         40.31492        27.38557         0.00840
C         39.07919        26.71526        -0.17461
C         40.36260        28.85219        -0.01467
C         39.04701        29.61060        -0.05347
C         40.27219        31.67459         0.63540
C         39.04756        31.01343         0.37293
C         40.27594        33.08010         0.87807
C         39.04775        33.80228         0.79017
C         40.24346        35.96234         1.02623
C         39.04249        35.24338         0.84124
C         40.27163        37.37440         1.00107
C         39.03515        38.08547         0.89361
C         40.27002        40.22441         0.73448
C         39.03692        39.52920         0.81739
C         40.27160        41.64343         0.54202
C         39.04222        42.35214         0.43007
C         40.27233        44.46613         0.10696
C         39.03998        43.76344         0.20453
C         40.26991        45.87246        -0.15195
C         39.04148        46.56724        -0.33737
C         40.28285        48.62146        -0.84358
C         39.04477        47.95062        -0.71003
C         40.32403        49.95923        -1.46610
C         39.00574        50.68627        -1.70924
C         40.30682        52.88042        -2.04716
C         38.94080        52.17346        -2.09671
C         40.32708        54.36012        -1.89038
C         39.12215        55.07085        -1.68670
C         40.35055        57.16650        -1.90965
C         39.15684        56.48211        -1.73847
C         42.88169        16.20246        -2.03942
C         41.63446        16.89362        -1.97863
C         42.83308        18.93524        -1.25916
C         41.61934        18.26965        -1.60145
C         42.80392        20.33443        -0.92666
C         41.56817        21.06402        -1.01207
C         42.77776        23.13423        -0.32900
C         41.55723        22.47706        -0.69263
C         42.77478        24.54129        -0.07736
C         41.54495        25.26591        -0.08726
C         42.77340        27.38238         0.32013
C         41.53798        26.67874         0.11306
C         42.78220        28.79585         0.57449
C         41.55319        29.54824         0.50198
C         42.69328        31.61099         1.25950
C         41.49848        30.91526         0.75683
C         42.70851        33.07995         1.31209
C         41.51358        33.76630         1.19872
C         42.71978        36.00674         1.68665
C         41.44535        35.22441         1.44731
C         42.74926        37.42718         1.27447
C         41.52185        38.10055         1.06277
C         42.74575        40.22258         0.76301
C         41.51398        39.51552         0.84700
C         42.74318        41.64392         0.56442
C         41.50938        42.35062         0.45558
C         42.74091        44.47573         0.17751
C         41.50703        43.76429         0.24991
C         42.74015        45.89146        -0.03634
C         41.50572        46.57977        -0.22000
C         42.74631        48.68998        -0.57364
C         41.50168        47.97256        -0.52765
C         42.72645        50.11379        -0.87088
C         41.59095        50.71538        -1.35443
C         42.80981        52.92852        -1.50216
C         41.60352        52.14093        -1.75362
C         42.83188        54.30753        -1.97617
C         41.55491        55.05337        -1.99159
C         42.82912        57.18796        -1.92636
C         41.57281        56.46726        -1.98131
C         44.05035        16.83844        -1.70779
C         45.27160        18.82927        -0.84252
C         44.06472        18.20381        -1.28055
C         45.19048        20.18708        -0.28670
C         43.98027        20.99426        -0.49966
C         45.23251        23.09152         0.02308
C         43.99566        22.39313        -0.24003
C         45.23045        24.51693         0.17275
C         44.00131        25.23740         0.14471
C         45.23543        27.36866         0.42741
C         43.99831        26.66252         0.31508
C         45.24414        28.78743         0.57928
C         44.00817        29.46844         0.75156
C         45.28429        31.64140         1.07454
C         44.03403        30.86507         1.20100
C         45.28773        33.04013         1.31693
C         44.00334        33.73229         1.66430
C         45.28712        36.00908         1.68187
C         44.00582        35.24142         1.82775
C         45.24640        37.42374         1.25338
C         43.99097        38.10972         1.12731
C         45.21959        40.22360         0.73848
C         43.98421        39.51622         0.85913
C         45.21241        41.64265         0.56127
C         43.97456        42.35394         0.47808
C         45.20654        44.49246         0.23793
C         43.97217        43.77177         0.29589
C         45.20988        45.90257         0.03973
C         43.97005        46.60767        -0.12277
C         45.25550        48.71551        -0.69561
C         43.95593        48.01094        -0.37440
C         45.23634        50.19430        -0.42136
C         43.93568        50.95687        -0.49960
C         45.28526        53.01677        -0.98002
C         44.10334        52.17137        -1.41675
C         45.30092        54.40914        -1.18813
C         44.13615        55.09030        -1.82937
C         44.02017        56.56130        -1.78266
C         47.72709        18.88055        -0.65784
C         46.53202        18.19942        -0.87984
C         47.77443        20.25864        -0.35460
C         46.51200        20.93348        -0.01143
C         47.69670        23.09832         0.12862
C         46.47003        22.40125         0.02175
C         47.67814        24.49759         0.36419
C         46.46582        25.21649         0.35895
C         47.67887        27.39782         0.43890
C         46.47338        26.66193         0.43745
C         47.69428        28.81718         0.40940
C         46.47075        29.51929         0.57833
C         47.71569        31.66122         0.68635
C         46.47920        30.95092         0.75710
C         47.71893        33.07387         0.88943
C         46.50318        33.75156         1.22768
C         47.75616        35.96068         1.00775
C         46.56729        35.21597         1.45853
C         47.71669        37.37076         0.93736
C         46.45961        38.09499         1.00824
C         47.68552        40.22473         0.63842
C         46.45714        39.51417         0.78293
C         47.67892        41.64413         0.52940
C         46.44158        42.35659         0.48676
C         47.66946        44.49678         0.37357
C         46.43856        43.78043         0.36035
C         47.66937        45.92039         0.30516
C         46.44941        46.62251         0.06507
C         47.66392        48.75537         0.03274
C         46.47618        48.02766        -0.14077
C         47.66733        50.19842        -0.06972
C         46.40479        50.89701        -0.29616
C         47.58763        53.09657        -0.16293
C         46.41914        52.36050        -0.44309
C         47.55951        54.49197        -0.29214
C         46.43302        55.14158        -0.78676
C         50.24301        20.44328        -0.76498
C         48.97663        21.00926        -0.32358
C         50.18281        23.08833         0.21308
C         48.95442        22.38796         0.05223
C         50.20798        24.47831         0.37788
C         48.94689        25.18601         0.62184
C         50.20663        27.39943         0.21744
C         48.96391        26.71200         0.61131
C         50.13829        28.80545        -0.01348
C         48.94214        29.52224         0.24541
C         50.14090        31.69094         0.32093
C         48.93896        30.96612         0.38381
C         50.16268        33.09589         0.52568
C         48.95518        33.79847         0.77886
C         50.18891        35.95019         0.70000
C         48.96739        35.24005         0.82072
C         50.17043        37.38237         0.69004
C         48.93406        38.09024         0.72781
C         50.15842        40.22878         0.49439
C         48.93682        39.51878         0.62723
C         50.15372        41.66442         0.41199
C         48.91286        42.36227         0.46155
C         50.13592        44.50416         0.46163
C         48.90618        43.78639         0.42675
C         50.11045        45.91976         0.57137
C         48.89616        46.63664         0.45417
C         50.07994        48.81315         0.47454
C         48.88506        48.07704         0.37735
C         50.09773        50.21984         0.24375
C         48.84364        50.91244         0.09926
C         50.11354        53.01902        -0.23547
C         48.84648        52.40963         0.31563
C         51.41759        21.07256        -0.54345
C         52.70715        23.10668         0.29161
C         51.44823        22.28079         0.35965
C         52.67966        24.49901         0.30315
C         51.41766        25.22952         0.31191
C         52.68016        27.25292        -0.37694
C         51.39998        26.63998         0.15465
C         52.68704        28.79202        -0.36864
C         51.38119        29.54845        -0.36760
C         52.66940        31.67559         0.19510
C         51.37071        31.08158        -0.30868
C         52.65949        33.10320         0.38298
C         51.42422        33.80622         0.47112
C         52.66051        35.92885         0.64443
C         51.43105        35.22694         0.59487
C         52.63971        37.37804         0.88501
C         51.38954        38.11659         0.68484
C         52.65528        40.22791         0.39728
C         51.40785        39.51878         0.55288
C         52.61172        41.65087        -0.11023
C         51.36761        42.39490         0.29264
C         52.63523        44.53123         0.37400
C         51.38183        43.79546         0.38325
C         52.65089        45.92925         0.60485
C         51.36652        46.62045         0.85398
C         52.60025        48.86301         0.60599
C         51.34254        48.15532         0.82460
C         52.58416        50.21730         0.25308
C         51.32534        50.91761         0.11586
C         51.27109        52.31650        -0.25089
C         55.13975        23.05830         0.55918
C         53.96654        22.41045         0.36011
C         55.18055        24.53638         0.83696
C         53.91625        25.23978         0.38908
C         55.12706        27.36582         0.25864
C         53.91754        26.61297         0.19988
C         55.10954        28.78785         0.24979
C         53.92394        29.51849         0.04808
C         55.10559        31.67673         0.58275
C         53.85289        30.93625         0.27853
C         55.13093        33.13584         0.35539
C         53.89540        33.83078         0.41082
C         55.14892        35.96998         0.45084
C         53.89796        35.25493         0.52181
C         55.17584        37.39602         0.46441
C         53.95184        38.14697         0.78201
C         55.12168        40.25763         0.14940
C         53.87890        39.57491         0.43567
C         55.10557        41.71566         0.07902
C         53.89531        42.40750         0.12397
C         55.10056        44.55799         0.29487
C         53.87435        43.83286         0.24451
C         55.09193        45.97969         0.44873
C         53.85947        46.65836         0.61843
C         55.11679        48.84970         0.51049
C         53.87334        48.13832         0.97889
C         55.04159        50.21692         0.17880
C         53.83972        50.89320         0.07403
C         57.62317        24.55919         0.05402
C         56.42153        25.24740         0.33898
C         57.58887        27.36751        -0.06245
C         56.38586        26.64837         0.24095
C         57.60916        28.78440         0.02126
C         56.41994        29.42270         0.70152
C         57.63322        31.67204         0.21936
C         56.41779        30.94436         0.65231
C         57.60797        33.09212         0.16480
C         56.35961        33.82088         0.29460
C         57.59622        35.97188         0.10575
C         56.36399        35.25417         0.26419
C         57.60530        37.39845         0.10570
C         56.35761        38.11537         0.22151
C         57.59790        40.25256        -0.30433
C         56.31929        39.55116         0.09697
C         57.58466        41.74496        -0.04613
C         56.35035        42.43614         0.07633
C         57.57837        44.56785         0.19804
C         56.34217        43.85406         0.18779
C         57.56863        45.99515         0.31489
C         56.33978        46.70336         0.44408
C         57.60393        48.81573         0.41517
C         56.35033        48.13363         0.47319
C         58.75924        25.23588        -0.35556
C         59.93505        27.39578        -0.74954
C         58.77132        26.65476        -0.40636
C         59.92861        28.77194        -0.69803
C         58.77722        29.49608        -0.26645
C         59.96861        31.69121        -0.43855
C         58.79813        30.96024        -0.15102
C         59.98494        33.07521        -0.36903
C         58.81309        33.80451        -0.08818
C         60.01770        35.98672        -0.15573
C         58.82243        35.26013        -0.05646
C         60.02663        37.38070        -0.06098
C         58.83873        38.10164         0.05873
C         60.07028        40.34275        -0.06804
C         58.82143        39.59309         0.33901
C         60.03648        41.67934        -0.22482
C         58.79882        42.44025        -0.06394
C         60.03087        44.61332         0.08977
C         58.81275        43.86813         0.07299
C         60.02559        45.98511         0.18812
C         58.80378        46.70644         0.28745
C         58.79208        48.12702         0.35140
O         45.75099        20.30249         1.06618
O         49.00609        25.96153         1.87349
O         52.05191        29.20454        -1.64263
O         30.39555        23.65394         1.17148
O         35.51362        36.93163        -0.82259
O         41.82657        35.69270         2.79601
O         34.18712        21.32401         0.61135
O         43.76406        54.51545        -3.13193
O         55.77871        31.43163         1.88844
O         51.31719        47.39507         2.10847
O         44.00848        34.36811         2.98478
O         25.99361        46.23864        -1.52417
O         39.84239        29.40303        -1.28137
O         39.66059        49.93832        -2.78653
O         41.12541        52.40517        -3.15557
O         27.92612        36.58352         2.21523
O         53.37990        37.79803         2.08745
O         46.18011        35.71270         2.79460
O         39.15207        22.12237        -2.56081
O         43.30704        31.03527         2.46480
O         56.57519        29.03603         2.09878
H         56.13189        29.73763         2.63181
O         38.55241        52.19504        -3.49448
H         39.24204        51.68035        -3.97406
O         58.66463        39.73951         1.77676
H         59.41946        39.29479         2.21471
O         51.42759        21.75014         1.73755
H         50.58759        21.25369         1.84368
O         51.26499        31.56604        -1.69051
H         51.77232        30.92742        -2.24558
O         30.30703        27.51329        -1.89442
H         31.10621        28.00191        -2.18729
O         33.70500        52.36924        -2.40299
H         32.86404        51.87334        -2.49980
O         48.89030        52.60734         1.77175
H         49.69968        52.16176         2.10130
O         44.38726        51.65666        -2.75363
H         44.28717        52.41748        -3.37309
O         57.74204        40.06618        -1.74453
H         57.02905        40.57106        -2.18782
O         45.38699        48.63206        -2.16703
H         44.92066        49.40853        -2.55397
O         43.65575        51.49465         0.82652
H         43.71328        50.76078         1.47325
O         52.73429        26.82241        -1.77637
H         52.24379        27.50261        -2.29617
O         28.01126        28.71476         2.04802
H         27.20866        28.24362         2.35893
O         53.92782        48.17227         2.45672
H         53.05222        47.82750         2.76472
O         29.02018        34.06588        -1.50242
H         29.04918        33.17387        -1.91029
O         34.00585        39.54850         2.69091
H         33.21906        39.02626         2.95565
O         36.31706        37.89120         2.60503
H         36.93342        38.47541         3.09414
O         52.49757        41.52896        -1.58447
H         53.29813        41.05657        -1.89794
O         55.22504        24.65332         2.30614
H         54.42181        24.21164         2.65613
H         22.02242        26.84460         0.22923
H         21.98729        29.29776         0.31613
H         21.98302        31.18815         0.41896
H         21.98290        33.60197         0.57803
H         21.99493        35.49243         0.61912
H         22.00167        37.91105         0.70752
H         22.01458        39.80481         0.92307
H         22.02674        42.22570         0.80089
H         22.06234        44.13662         0.81360
H         22.07484        46.57340         0.60665
H         25.35238        23.48177        -0.10708
H         23.24638        24.73027         0.08998
H         25.42179        49.90278        -0.07207
H         23.31458        48.69309         0.12026
H         26.98304        22.59318        -0.56933
H         27.09930        50.84580         0.09969
H         29.04733        21.36928        -0.79947
H         29.22602        52.02566         0.10345
H         32.83906        19.45134        -1.83016
H         30.75184        20.59609        -1.32026
H         33.01490        54.09026        -0.05981
H         30.97774        52.89114         0.49562
H         34.51618        18.36451        -1.55957
H         34.60207        54.99321        -0.67022
H         36.63193        17.19681        -1.93765
H         36.72546        56.15159        -0.95216
H         40.43620        15.19079        -2.59965
H         38.28914        16.38144        -2.45722
H         40.35478        58.26542        -1.93875
H         38.23014        57.06269        -1.64627
H         42.89249        15.14753        -2.34913
H         42.78446        58.28708        -1.90468
H         44.99172        16.27506        -1.75154
H         44.92682        57.16350        -1.62910
H         48.66713        18.32640        -0.78582
H         46.60009        17.14421        -1.17735
H         48.43573        55.09038        -0.00829
H         46.45601        56.23431        -0.89090
H         50.22561        19.50799        -1.34298
H         50.12152        54.07732        -0.53283
H         52.35680        20.64158        -0.91896
H         52.19143        52.81853        -0.58067
H         56.06008        22.47129         0.68743
H         53.96066        21.31331         0.28302
H         55.96304        50.76564        -0.06234
H         53.85661        51.95596        -0.19793
H         57.66047        23.46405         0.12924
H         57.62775        49.91240         0.46810
H         59.67337        24.67931        -0.60771
H         60.84952        26.85855        -1.03967
H         60.84840        29.30988        -0.96222
H         60.89846        31.17147        -0.70115
H         60.92820        33.59683        -0.57608
H         60.97929        35.46890        -0.26498
H         60.99608        37.89660        -0.08425
H         61.03123        39.81581        -0.15749
H         60.96463        42.21598        -0.46739
H         60.99338        44.08994         0.01833
H         60.97358        46.54238         0.18679
H         59.74773        48.67075         0.33984
