         232
 CSIRO Nanostructure Databank - Neutral Graphene Oxide Data Set
C        -11.12552         0.81563        -0.47539
C         -9.97842         1.57161         0.01165
C         -8.75127         0.82058         0.23490
C         -7.56852         1.49428         0.35042
C         -6.26650         0.80696         0.27882
C         -5.08162         1.54428         0.81310
C         -3.83024         0.75451         1.00445
C         -2.53692         1.51407         0.97431
C         -1.26769         0.75374         1.11926
C          0.01791         1.46567         0.92548
C          1.17796         0.79216         1.24060
C          2.45071         1.54225         1.33799
C          3.75690         0.80804         1.29761
C          4.97974         1.51252         0.71154
C          6.26873         0.75181         1.14299
C          7.51202         1.48033         0.61037
C          8.49137         0.72855        -0.21230
C          9.45205         1.47560        -0.98294
C         10.45683         0.73855        -1.71410
C         -9.99533         2.95185         0.06627
C         -8.81613         3.71824         0.49196
C         -7.52088         2.94645         0.55380
C         -6.24241         3.65351         0.28797
C         -5.05384         3.00461         0.48714
C         -3.77598         3.64036         0.20102
C         -2.53805         2.81722         0.22228
C         -1.21831         3.44688        -0.15882
C          0.10593         2.72315         0.08746
C          1.22551         3.65647         0.48429
C          2.43732         3.02283         1.05704
C          3.74346         3.74018         0.94315
C          5.03256         2.99703         0.99839
C          6.18595         3.70086         0.79586
C          7.47285         2.98265         0.52306
C          8.44156         3.67399        -0.37832
C          9.40660         2.86799        -1.06831
C         -8.69375         5.20223         0.41557
C         -7.51196         5.83834         0.17402
C         -6.34704         4.99102        -0.41506
C         -4.98085         5.64974        -0.51344
C         -3.74869         4.92187        -0.30016
C         -2.48651         5.50398        -0.93137
C         -1.20549         4.90299        -0.39249
C         -0.02111         5.63754        -0.29359
C          1.20891         4.98388         0.17003
C          2.47560         5.81726         0.32134
C          3.72979         4.95461         0.03236
C          5.00324         5.75361         0.11708
C          6.15595         5.14151         0.52466
C          7.50055         5.84133         0.44030
C          8.41020         5.04211        -0.47555
C         -7.39594         7.27661         0.43952
C         -6.58234         8.10582        -0.28508
C         -4.87719         6.92838        -0.99281
C         -3.65740         7.71006        -0.94016
C         -2.47407         7.01305        -0.92099
C         -1.18073         7.69534        -1.23614
C          0.01862         7.02903        -0.61074
C          1.24720         7.75027        -0.66758
C          2.46255         7.08944        -0.47761
C          3.69983         7.70315        -1.08052
C          5.07850         6.94527        -0.82850
C          6.23770         7.84823        -0.44017
C          7.37028         7.29412         0.07329
C         -6.09810         9.43663         0.00436
C         -4.85038         9.89696        -0.35506
C         -3.68547         9.16490        -0.80125
C         -2.45383         9.84228        -0.84479
C         -1.21413         9.18526        -1.00072
C          0.01226         9.87047        -0.97379
C          1.24347         9.18586        -0.93332
C          2.49058         9.87832        -0.90980
C          3.70532         9.20831        -0.88782
C          4.94908         9.91309        -0.84552
C          6.14466         9.27346        -0.64926
C        -11.08033        -0.52529        -0.69922
C         -9.93545        -1.34952        -0.34443
C         -8.80556        -0.68760         0.41765
C         -7.49565        -1.41604         0.18450
C         -6.21868        -0.67398         0.18804
C         -4.96925        -1.40343         0.51309
C         -3.79207        -0.72224         0.80010
C         -2.54269        -1.43236         0.93862
C         -1.30349        -0.73648         1.09664
C         -0.08431        -1.43406         1.09064
C          1.20279        -0.67169         0.83477
C          2.50954        -1.44402         1.07404
C          3.76199        -0.70651         1.42117
C          5.04926        -1.47130         1.40179
C          6.16391        -0.72478         0.66695
C          7.48247        -1.44147         0.46735
C          8.49209        -0.67278        -0.23287
C          9.48427        -1.38725        -1.00472
C         10.47795        -0.62393        -1.71832
C         -9.90085        -2.69125        -0.54396
C         -8.77800        -3.53845         0.01690
C         -7.47245        -2.77093         0.04989
C         -6.20353        -3.49579         0.00842
C         -4.98660        -2.82289         0.34029
C         -3.77053        -3.55203         0.47586
C         -2.53726        -2.85637         0.79836
C         -1.29996        -3.55588         0.90480
C         -0.08705        -2.85084         1.05165
C          1.18008        -3.61655         1.23925
C          2.53689        -2.93786         1.15559
C          3.78299        -3.72250         1.62364
C          5.12788        -2.99552         1.52967
C          6.48385        -3.62834         1.21237
C          7.50492        -2.82477         0.45692
C          8.42748        -3.53892        -0.41605
C          9.41414        -2.77012        -1.11099
C         -8.63267        -4.88597        -0.63983
C         -7.42107        -5.54710        -0.69713
C         -6.18329        -4.86420        -0.32944
C         -4.95076        -5.58129        -0.32113
C         -3.79146        -4.93338         0.16519
C         -2.56995        -5.73080         0.33179
C         -1.28753        -5.03228         0.73525
C         -0.01783        -5.69977         0.37195
C          1.20227        -5.07163         0.86915
C          2.56035        -5.57114         0.40540
C          3.63456        -5.23995         1.45879
C          4.68852        -6.25766         1.66177
C          6.98175        -5.07138         1.28157
C          7.37814        -5.75397         0.01331
C          8.26726        -4.89963        -0.72745
C         -7.34663        -6.93180        -1.06189
C         -6.14331        -7.63399        -1.05834
C         -4.90502        -6.97281        -0.73822
C         -3.67674        -7.66292        -0.86836
C         -2.47355        -6.95208        -0.49306
C         -1.22176        -7.34378        -0.90763
C          0.01057        -6.86797        -0.35109
C          1.26268        -7.65127        -0.61729
C          2.55804        -7.00415        -0.13848
C          3.77994        -7.80773         0.02439
C          4.89204        -7.33267         0.77700
C          6.26693        -8.00417         0.63888
C          7.11716        -7.07381        -0.25810
C         -6.10251        -9.04582        -1.33632
C         -4.92567        -9.73977        -1.30695
C         -3.65077        -9.09299        -1.12620
C         -2.50538        -9.92891        -1.03215
C         -1.17627        -9.47071        -1.20340
C          0.06612        -9.95049        -0.76386
C          1.25620        -9.14754        -0.72964
C          2.51106        -9.78022        -0.71818
C          3.74706        -9.14166        -0.44697
C          4.99187        -9.89489        -0.44723
C          6.14772        -9.37192         0.01043
O          2.98663         3.82556         2.18560
O          0.52945         2.22409        -1.21931
H          0.80126         1.26109        -1.12253
O          8.12853         2.32329         1.66232
O          3.41672        -4.55524         2.74554
O          7.39795        -5.49049         2.35321
O          2.75779        -2.28907        -0.11183
O         -2.01965         2.69262        -1.15146
O         -9.16366        -3.84635         1.40077
H         -8.36420        -4.16938         1.86717
O          4.47709        -1.02019         2.65698
O          6.33685         0.73401         2.56466
H          6.92367         1.47199         2.84937
O         -9.09356        -0.87113         1.84069
H         -9.99247        -0.51883         2.01022
O         -1.91383         1.45989         2.28977
O          5.66476        -0.78834        -0.70035
H          6.19861        -0.20203        -1.27724
O         -2.07706        -5.80547         1.71283
O          2.97452        -4.75967        -0.72096
H          2.60838        -5.17378        -1.53859
O          1.07704        -4.64741         2.26083
O         -8.23022         3.31422         1.79756
O          3.65472         4.42949        -1.31562
H          4.29432         4.98162        -1.86923
O          4.87517         1.50220        -0.74024
H          4.29955         2.24974        -1.02808
O          6.12343        -3.21444         2.56871
O          5.41803         6.26163        -2.03170
O          2.15269        -6.99201        -1.57057
O         -6.03027         7.55887        -1.47220
O         -2.51405         5.10691        -2.34854
H         -2.40849         4.12002        -2.35497
O         -1.10070        -8.26680        -1.94423
O         -4.67671         1.15248         2.15529
O         -6.03137         0.17949        -1.03310
O         -6.77435         4.68113        -1.77670
H         -6.77183         5.52867        -2.27393
O          1.20958        -0.33790        -0.56187
O          3.24258         1.31830         2.55586
O          3.39119         7.52043        -2.49415
H          4.15751         6.95232        -2.83246
O          2.56008         6.34362         1.67490
H          2.63549         5.55582         2.27685
O          6.93283        -8.18745         1.89089
H          7.17936        -7.30586         2.26601
O          5.24226        -6.26202         2.87264
H          4.91647        -5.46631         3.36646
O          8.13066         5.81249         1.75353
H          8.24945         4.87452         2.01656
O         -1.00742         7.50519        -2.68794
H         -1.34363         6.60134        -2.90683
H         11.24661        -1.16650        -2.28759
H         11.20859         1.30693        -2.28083
H         10.15136         3.38162        -1.69538
H          9.12570         5.56340        -1.12978
H          8.21551         7.94519         0.34976
H          7.07052         9.86630        -0.58454
H          4.92568        11.01088        -0.92352
H          2.48010        10.97957        -0.90347
H          0.01300        10.97148        -0.95522
H         -2.44618        10.93152        -0.67976
H         -4.64719        10.95614        -0.12381
H         -6.75949        10.12290         0.55604
H         -7.92808         7.67452         1.31752
H         -9.56505         5.79337         0.74239
H        -10.88990         3.49789        -0.27041
H        -12.03719         1.37744        -0.72868
H        -11.95656        -1.03245        -1.13167
H        -10.74553        -3.20215        -1.03302
H         -9.55473        -5.43961        -0.87778
H         -8.27882        -7.46040        -1.31260
H         -7.04801        -9.56881        -1.54109
H         -4.93168       -10.82592        -1.48160
H         -2.67672       -10.99749        -0.82503
H          0.15171       -10.99961        -0.43944
H          2.53786       -10.86664        -0.89549
H          4.96801       -10.92348        -0.83797
H          7.06253        -9.98264         0.00568
H          7.53323        -7.50272        -1.18507
H          8.87989        -5.33545        -1.53164
H         10.12783        -3.29768        -1.76129
