         424
 CSIRO Nanostructure Databank - Neutral Graphene Oxide Data Set
C          1.20050         3.09694        -0.45076
C          0.07540         3.90996        -0.81284
C          1.20877         6.13135        -0.42145
C          0.06259         5.27899        -0.91706
C          1.15303         7.63553        -0.59042
C         -0.00535         8.34904        -0.55447
C          1.17455        10.51162        -0.44538
C         -0.00104         9.77963        -0.55262
C          1.16162        11.96600        -0.34584
C         -0.04699        12.69663        -0.36826
C          1.13810        14.82036        -0.21225
C         -0.06082        14.08038        -0.30223
C          1.14213        16.26860        -0.19356
C         -0.08615        17.02761        -0.08823
C          1.08849        19.17782        -0.35985
C         -0.11828        18.38712        -0.09423
C          1.09166        20.65448        -0.15907
C          0.02405        21.41875        -0.55902
C          1.20474        23.51854        -0.06138
C          0.05731        22.83287        -0.46052
C          1.22312        24.96989         0.05201
C          0.01377        25.70137        -0.04438
C          1.18089        27.78405         0.40596
C         -0.01073        27.06553         0.14430
C          1.13857        29.20102         0.66632
C         -0.03714        29.95701         0.62178
C          1.14466        32.10878         0.54089
C         -0.03528        31.36115         0.56929
C          1.18992        33.51009         0.19342
C          0.00334        34.24935        -0.06518
C          1.27222        36.30338        -0.36199
C          0.04027        35.60343        -0.33291
C          1.32150        37.71004        -0.61358
C          3.75612         3.17502        -0.21123
C          2.51112         3.52293        -0.73819
C          3.71821         6.18931        -0.46748
C          2.53914         5.64628        -0.91717
C          3.65141         7.63962        -0.03414
C          2.48686         8.34677        -0.75819
C          3.63596        10.51018        -0.22158
C          2.44613         9.82298        -0.41290
C          3.63917        11.96610        -0.16557
C          2.38606        12.67642        -0.24335
C          3.61070        14.81828        -0.11984
C          2.37487        14.10470        -0.18381
C          3.60859        16.24376        -0.11163
C          2.36510        16.94880        -0.18114
C          3.65572        19.11061         0.01426
C          2.39999        18.41418        -0.32873
C          3.61777        20.53875         0.41826
C          2.30062        21.32348         0.34935
C          3.61991        23.45299         0.50122
C          2.39634        22.79240         0.26760
C          3.67741        24.91287         0.47259
C          2.43507        25.65408         0.30036
C          3.66089        27.80085         0.55458
C          2.42469        27.08025         0.42799
C          3.66662        29.16859         0.79798
C          2.39314        29.87276         0.99235
C          3.68107        32.08900         0.62514
C          2.39625        31.43912         0.90194
C          3.68200        33.46699         0.32381
C          2.44443        34.18345         0.13975
C          3.72811        36.28211        -0.16459
C          2.48202        35.58450        -0.13342
C          3.75059        37.69304        -0.39909
C          2.51647        38.38341        -0.62592
C          6.18571         3.34823        -0.16613
C          4.94497         3.98751        -0.34692
C          6.16432         6.16886        -0.33252
C          4.93710         5.43491        -0.44908
C          6.14622         7.63913        -0.36147
C          4.95716         8.34897        -0.31827
C          6.10361        10.50942        -0.20389
C          4.92662         9.80414        -0.25001
C          6.11850        11.94870         0.23152
C          4.84076        12.67940        -0.09439
C          6.07197        14.83877        -0.17327
C          4.85055        14.11092        -0.11978
C          6.06745        16.24059        -0.10324
C          4.83748        16.95574        -0.05754
C          6.11142        19.10111         0.43428
C          4.82500        18.40164         0.06959
C          6.09742        20.60442         0.20799
C          4.86207        21.31580         0.42551
C          6.14026        23.39442         0.92703
C          4.83821        22.70274         0.59567
C          6.14607        24.89696         0.72490
C          4.88918        25.59085         0.58415
C          6.03117        27.74592         1.32228
C          4.98518        27.08272         0.37743
C          6.12908        29.22173         0.94231
C          4.90423        29.92212         0.84981
C          6.14193        32.04034         0.61739
C          4.89487        31.34739         0.71743
C          6.14974        33.45553         0.42978
C          4.92967        34.16526         0.25170
C          6.19060        36.27857         0.04377
C          4.94858        35.57531         0.04130
C          6.19538        37.70614        -0.17746
C          4.98067        38.37968        -0.40111
C          8.64889         3.39125        -0.03123
C          7.40916         4.05877        -0.15314
C          8.68317         6.22218        -0.42115
C          7.37977         5.49062        -0.24058
C          8.61103         7.69681        -0.12954
C          7.41172         8.35088        -0.29649
C          8.63267        10.55472        -0.05443
C          7.40275         9.83626        -0.54504
C          8.59525        11.99684        -0.07630
C          7.38642        12.67191        -0.13846
C          8.60877        14.86575        -0.27649
C          7.33516        14.10923        -0.56921
C          8.58508        16.27316        -0.29128
C          7.31896        16.99514        -0.19939
C          8.52853        19.12256        -0.43787
C          7.30718        18.36525        -0.11647
C          8.50832        20.62729        -0.37754
C          7.27307        21.31706         0.03587
C          8.54943        23.40595         0.28992
C          7.34572        22.73032         0.30358
C          8.64228        24.78831         0.89893
C          7.34301        25.56684         0.83512
C          8.63104        27.76055         0.82203
C          7.43125        27.00226         1.33415
C          8.62005        29.17041         0.80808
C          7.35962        29.90053         0.84655
C          8.60775        32.04297         0.64450
C          7.36915        31.31997         0.68281
C          8.60352        33.44375         0.60235
C          7.39081        34.16620         0.43933
C          8.66166        36.30395         0.26856
C          7.39997        35.58270         0.26121
C          8.64812        37.74908         0.02912
C          7.42881        38.40498        -0.17893
C         11.10135         3.42589         0.34519
C          9.86454         4.11058         0.18194
C         11.00141         6.27672         0.76900
C          9.84521         5.51785         0.19632
C         11.03200         7.74118         0.39675
C          9.85148         8.41772         0.10706
C         11.06131        10.58864         0.36901
C          9.83152         9.86826         0.10729
C         11.03968        12.03480         0.25248
C          9.85518        12.72076        -0.02107
C         11.04634        14.89589         0.02429
C          9.83066        14.16672        -0.11653
C         11.02262        16.30510        -0.02234
C          9.81194        16.99616        -0.19370
C         11.00021        19.16830        -0.38036
C          9.82107        18.43796        -0.31124
C         10.99409        20.62208        -0.42270
C          9.78702        21.33712        -0.25118
C         11.02318        23.43661        -0.04600
C          9.79355        22.72598        -0.01151
C         11.01943        24.88515         0.05358
C          9.83770        25.57647         0.37967
C         11.02253        27.72546         0.26623
C          9.84089        27.02567         0.48544
C         11.13579        29.14518         0.74319
C          9.83842        29.90578         0.65815
C         11.10088        32.02621         0.45769
C          9.86193        31.30996         0.63266
C         11.11489        33.44742         0.40130
C          9.88014        34.18682         0.88742
C         11.15668        36.37372         0.58162
C          9.84266        35.64287         0.49719
C         11.10688        37.81985         0.13616
C          9.86722        38.46284        -0.01904
C         13.55282         3.48199         0.20005
C         12.32289         4.14691         0.38391
C         13.51040         6.30187         0.62758
C         12.31624         5.57297         0.54248
C         13.47105         7.74039         0.78691
C         12.26475         8.45695         0.62891
C         13.44997        10.65372         1.16654
C         12.24028         9.89633         0.65693
C         13.45972        12.08978         0.70850
C         12.29235        12.76029         0.37584
C         13.51007        14.90741         0.19260
C         12.29695        14.19658         0.21098
C         13.52841        16.33905         0.01301
C         12.26330        17.09182         0.30603
C         13.45928        19.15539        -0.45125
C         12.27374        18.48921        -0.25531
C         13.44155        20.58540        -0.94188
C         12.21075        21.33298        -0.49347
C         13.48331        23.45464        -0.46026
C         12.22804        22.73604        -0.33283
C         13.46461        24.89638        -0.38918
C         12.25225        25.57755        -0.19616
C         13.52029        27.76710        -0.17301
C         12.20133        27.06805        -0.39423
C         13.53017        29.18095        -0.05522
C         12.32877        29.89569         0.20727
C         13.54706        32.01688        -0.01950
C         12.32333        31.30033         0.21583
C         13.53864        33.46824        -0.02911
C         12.28943        34.15052         0.11114
C         13.56041        36.34224        -0.07063
C         12.23751        35.62655        -0.20603
C         13.56381        37.76011        -0.05736
C         12.32070        38.47695        -0.05777
C         15.98058         3.54895        -0.16911
C         14.76596         4.20083         0.17477
C         16.00735         6.29170         0.49614
C         14.76689         5.60952         0.45237
C         16.05489         7.70683         0.93288
C         14.73267         8.46062         1.06359
C         15.97909        10.59413         0.87343
C         14.77285         9.93275         0.94121
C         16.02747        12.07519         0.95044
C         14.70470        12.84027         0.87605
C         15.97357        14.86836         0.19885
C         14.75531        14.22784         0.40155
C         15.96054        16.24613        -0.33633
C         14.70315        17.01354        -0.24019
C         15.92349        19.16747        -0.48695
C         14.73049        18.45525        -0.39946
C         15.91411        20.61030        -0.49020
C         14.71464        21.32667        -0.64357
C         15.98661        23.45966        -0.86292
C         14.68424        22.74510        -0.61333
C         15.94795        24.93141        -0.52349
C         14.72180        25.62247        -0.44273
C         15.97627        27.77344        -0.40193
C         14.73111        27.06045        -0.32924
C         15.98577        29.19225        -0.42669
C         14.75860        29.90122        -0.24632
C         15.97738        32.08690        -0.64309
C         14.73958        31.31628        -0.24259
C         16.04136        33.42700         0.07189
C         14.74639        34.18602        -0.09638
C         16.02171        36.31727        -0.11523
C         14.77190        35.61816        -0.09189
C         16.01383        37.74570        -0.17391
C         14.80321        38.44332        -0.12817
C         18.38324         3.63380        -0.76453
C         17.18406         4.24864        -0.21601
C         18.48456         6.32608         0.29320
C         17.19977         5.62122         0.18120
C         18.50176         7.79232         0.41123
C         17.28753         8.48399         0.70876
C         18.47209        10.63592         0.65004
C         17.25773         9.90147         0.75557
C         18.48193        12.05315         0.51130
C         17.25239        12.78769         0.56781
C         18.46846        14.89999         0.16838
C         17.22657        14.17240         0.30419
C         18.48202        16.30665        -0.00233
C         17.25914        16.99170        -0.46716
C         18.37935        19.19572         0.09574
C         17.27556        18.50412        -0.67669
C         18.27783        20.59555         0.27944
C         17.13096        21.30737        -0.14101
C         18.35091        23.43403        -0.03187
C         17.16691        22.73967        -0.24063
C         18.46539        24.84153        -0.57653
C         17.17355        25.62047        -0.46088
C         18.46401        27.72113        -0.48714
C         17.21387        27.03314        -0.44520
C         18.48412        29.16708        -0.89781
C         17.22701        29.92607        -0.55727
C         18.50452        32.05040        -0.54174
C         17.26220        31.30635        -0.51021
C         18.51303        33.47240        -0.47515
C         17.28291        34.21213        -0.28037
C         18.55768        36.36094        -0.07777
C         17.26181        35.59373        -0.20388
C         18.45366        37.80923        -0.49593
C         17.25307        38.45869        -0.40392
C         19.55436         4.30134        -0.88868
C         20.82305         6.51713        -0.70636
C         19.74144         5.63282        -0.28521
C         20.84368         7.83223        -0.31636
C         19.71740         8.47831         0.28055
C         20.98070        10.67818         0.42148
C         19.77645         9.88801         0.83996
C         20.94074        12.01831         0.26294
C         19.70934        12.76947         0.36282
C         20.90497        14.96485         0.39047
C         19.70704        14.19549         0.30719
C         20.87456        16.34174         0.42014
C         19.65921        17.06154         0.23157
C         20.72494        19.26979         0.80106
C         19.57692        18.50229         0.35963
C         20.65802        20.59601         1.05243
C         19.35876        21.35293         1.02017
C         20.63851        23.52385         0.79639
C         19.49565        22.79014         0.54415
C         20.70209        24.92227         0.53068
C         19.65854        25.60159        -0.05222
C         20.89517        27.76679        -0.21187
C         19.68119        27.03610        -0.27356
C         20.91427        29.16032        -0.31290
C         19.75145        29.89972        -0.54329
C         20.95396        32.07097        -0.66535
C         19.74871        31.33686        -0.58745
C         20.94732        33.45631        -0.72970
C         19.74582        34.18494        -0.62385
C         20.83595        36.36976        -1.08021
C         19.75002        35.63879        -0.65967
C         20.80754        37.80357        -1.13833
C         19.66110        38.50032        -0.87365
O         16.65700        16.33501        -1.64531
O          8.38242        19.92568        -1.68027
O         15.38306        12.60456         2.17152
O          1.79223        18.84520        -1.61352
O          2.56506         4.54200        -1.74210
O         15.44368         7.94354         2.24863
O         19.46064         5.66193         1.15286
O          2.35135        30.72468         2.17065
O          5.52193        27.72342         2.62308
O          2.79166        20.74215         1.61861
O         10.01301        34.16636         2.35751
H         10.75977        34.78017         2.57024
O         18.81133        36.39866         1.38087
H         19.63813        36.91026         1.51244
O         17.61465        18.72194        -2.07933
H         17.12822        18.03247        -2.58787
O          3.40143         7.75538         1.38732
H          4.04617         7.18860         1.85907
O          8.89876        24.53199         2.32765
H          8.68671        25.38797         2.79494
O         18.47527        29.12834        -2.39389
H         19.22143        28.55146        -2.66626
O         11.40717        29.02507         2.19950
H         11.31112        29.92097         2.58924
O         12.22429        17.25729         1.77431
H         12.99871        17.80231         2.02951
O          6.24945        18.97331         1.89629
H          5.55907        19.53599         2.31034
O          7.78606        26.89120         2.74929
H          6.92187        27.15332         3.21958
O          1.28121         5.91665         1.03821
H          0.53878         6.41186         1.44477
O         11.58970        36.36867         1.98240
H         11.04978        37.03221         2.46182
O         16.16052        33.13157         1.49833
H         16.30498        33.97920         1.96996
O         15.83983        32.38436        -2.06686
H         15.94295        31.54292        -2.56003
O          5.45891        27.30790        -0.98370
H          4.82375        26.88690        -1.60009
O         10.79552         6.27326         2.24106
H         11.57364         6.71931         2.64111
O         19.92343         9.70593         2.30032
H         19.16509         9.16112         2.60349
O         13.30287        10.70925         2.62743
H         14.03020        11.29307         2.95221
O          7.24797        14.04162        -2.04952
H          8.00178        13.49894        -2.36580
O         11.84446        35.72100        -1.61062
H         12.53684        35.27974        -2.14636
O          6.15628        11.88945         1.71420
H          5.32346        11.46415         2.01227
O          8.92895         6.15631        -1.89522
H          8.07830         6.36742        -2.33794
O         11.94373        27.23701        -1.85482
H         12.61080        26.69559        -2.33042
O         16.19598        23.40283        -2.31265
H         17.05982        23.85339        -2.49282
O         18.90383        21.45480         2.42016
H         18.84704        20.54205         2.77407
O          2.81451         8.25126        -2.17933
H          2.14794         8.76880        -2.67812
O         13.35669        20.51577        -2.40997
H         12.48919        20.11617        -2.63391
O         18.69649        24.67907        -2.03658
H         19.50954        24.13945        -2.14169
O          6.31897        23.20854         2.37260
H          7.19918        23.60281         2.60310
O          7.49158         9.94634        -2.02834
H          8.28268         9.43574        -2.30660
H          1.02401         2.12495         0.03173
H         -0.88663         3.38578        -0.94983
H         -0.88292         5.77534        -1.18432
H         -0.97576         7.83201        -0.50019
H         -0.97471        10.28528        -0.56815
H         -1.00818        12.17193        -0.44740
H         -1.02878        14.59706        -0.34062
H         -1.02494        16.48582         0.09253
H         -1.05436        18.91590         0.13782
H         -0.88125        20.93533        -0.95301
H         -0.84576        23.38170        -0.75472
H         -0.93454        25.18124        -0.22889
H         -0.97439        27.58897         0.10307
H         -1.00658        29.45397         0.50527
H         -1.00244        31.86058         0.42055
H         -0.97048        33.74247        -0.03746
H         -0.89391        36.15348        -0.51730
H          0.37888        38.24847        -0.79018
H          3.84565         2.25067         0.37843
H          2.54298        39.46702        -0.81154
H          6.20948         2.25506        -0.04906
H          4.99220        39.46563        -0.57844
H          8.66738         2.29170        -0.00514
H          7.42656        39.49136        -0.35501
H         11.12457         2.32862         0.27822
H          9.84653        39.53575        -0.26515
H         13.56244         2.39647         0.02357
H         12.33069        39.55899        -0.25929
H         15.95626         2.48238        -0.43733
H         14.80990        39.54258        -0.17234
H         18.28491         2.61837        -1.17696
H         17.19900        39.54178        -0.59589
H         20.40233         3.84586        -1.42199
H         21.62614         6.11229        -1.33957
H         21.72263         8.43847        -0.57731
H         21.94885        10.16119         0.36514
H         21.86931        12.55410         0.02006
H         21.87222        14.45744         0.50423
H         21.81971        16.88440         0.55332
H         21.69171        18.76005         0.91534
H         21.56247        21.11595         1.39878
H         21.50795        23.05839         1.27863
H         21.59904        25.46446         0.86206
H         21.84164        27.23752        -0.03925
H         21.87292        29.67531        -0.15825
H         21.91644        31.54516        -0.72148
H         21.90508        33.98629        -0.82163
H         21.74625        35.86489        -1.43357
H         21.71413        38.33361        -1.46186
H         19.62470        39.59127        -1.01017
