         424
 CSIRO Nanostructure Databank - Neutral Graphene Oxide Data Set
C          1.46848         4.09969        -2.95486
C          0.29887         4.85282        -3.05136
C          1.39111         6.77165        -2.00929
C          0.25594         6.17202        -2.59648
C          1.36986         8.12074        -1.47703
C          0.28410         9.03767        -1.80086
C          1.06262        10.71630        -0.11680
C          0.23017        10.28726        -1.30381
C          1.23971        12.22121        -0.05467
C          0.03382        13.00764        -0.12621
C          1.29770        15.15407         0.10813
C          0.03877        14.36162        -0.06610
C          1.18162        16.21128         1.24476
C         -0.06935        17.03002         1.16690
C          1.16958        19.14340         1.09289
C         -0.05674        18.37913         1.09284
C          1.16706        20.55865         0.98958
C         -0.05381        21.29401         0.89186
C          1.16761        23.39652         0.74598
C         -0.05116        22.65849         0.77974
C          1.16192        24.82736         0.65989
C         -0.04168        25.56436         0.53067
C          1.12582        27.70367         0.34175
C         -0.04912        26.94276         0.31889
C          1.13036        29.12307         0.17602
C         -0.07909        29.85352         0.01368
C          1.12239        31.97608        -0.04383
C         -0.08413        31.22844        -0.06909
C          1.11318        33.41977        -0.09928
C         -0.08817        34.16883        -0.05278
C          1.13899        36.26968        -0.13915
C         -0.07606        35.55543        -0.05409
C          1.16735        37.71283        -0.08542
C          3.85495         3.92851        -2.31166
C          2.63166         4.66347        -2.38869
C          3.76342         6.59494        -1.33950
C          2.58497         6.00397        -1.89234
C          3.71618         7.91221        -0.79200
C          2.45845         8.61610        -0.77457
C          3.65896        10.71136        -0.35183
C          2.39377         9.90749         0.03703
C          3.69417        12.12398         0.17606
C          2.45899        12.85287         0.19319
C          3.65248        14.88642         0.88881
C          2.51302        14.29403         0.41322
C          3.68884        16.32789         1.16099
C          2.44052        17.03639         1.21801
C          3.64003        19.18401         1.29271
C          2.41490        18.44950         1.22184
C          3.64720        20.57178         1.11206
C          2.40465        21.27578         0.95979
C          3.65062        23.40554         0.72437
C          2.40411        22.69285         0.82670
C          3.61578        24.83025         0.56829
C          2.41039        25.52439         0.60584
C          3.65540        27.73146         0.41308
C          2.38852        27.02180         0.80877
C          3.61746        29.14815         0.27727
C          2.36664        29.84945         0.18301
C          3.60205        31.98728        -0.03332
C          2.35749        31.26752         0.03940
C          3.58925        33.40729        -0.18351
C          2.35398        34.12388        -0.18437
C          3.59987        36.26118        -0.36022
C          2.35641        35.55095        -0.24181
C          3.60898        37.72668        -0.31952
C          2.33893        38.40274        -0.13756
C          6.25637         3.78311        -1.76271
C          5.02472         4.51680        -1.84484
C          6.18391         6.52895        -0.96664
C          4.99833         5.89007        -1.37928
C          6.15354         7.85836        -0.49481
C          4.92363         8.53569        -0.39050
C          6.20241        10.71165        -0.30110
C          4.92944         9.95949         0.11242
C          6.16695        12.10193         0.29734
C          4.90598        12.74285         0.48519
C          6.16461        14.83165         1.13552
C          4.87048        14.05903         1.22247
C          6.14235        16.23227         1.68517
C          4.88230        16.99710         1.36986
C          6.17113        19.17685         1.39533
C          4.88136        18.45793         1.74949
C          6.12424        20.58241         1.21665
C          4.90192        21.30030         1.07015
C          6.14178        23.45009         0.68840
C          4.88914        22.70790         0.82164
C          6.14557        24.85541         0.48917
C          4.86445        25.55107         0.12146
C          6.10167        27.74761         0.37344
C          4.86337        27.03913         0.36893
C          6.06976        29.15883         0.33474
C          4.84528        29.86373         0.19428
C          6.07256        32.01285        -0.09707
C          4.83575        31.29214         0.03945
C          6.04608        33.40983        -0.33310
C          4.82288        34.11849        -0.32931
C          6.06342        36.31069        -0.42168
C          4.79236        35.55136        -0.43950
C          6.04349        37.75494        -0.87348
C          4.77375        38.44011        -0.45371
C          8.65657         3.66032        -1.28262
C          7.44501         4.38478        -1.37565
C          8.63386         6.39588        -0.38298
C          7.51242         5.89183        -1.26117
C          8.54677         7.72007         0.15306
C          7.39729         8.50765        -0.05885
C          8.58263        10.61375         0.48611
C          7.42603         9.92585         0.11747
C          8.60696        12.03306         0.64287
C          7.37201        12.75673         0.60252
C          8.62614        14.86204         1.14961
C          7.35849        14.16900         0.96359
C          8.60184        16.28455         1.30597
C          7.40548        17.00123         1.40063
C          8.64664        19.11382         1.09238
C          7.38906        18.44014         1.34951
C          8.67109        20.59292         1.05396
C          7.38412        21.34467         1.15002
C          8.60799        23.45109         0.57407
C          7.37247        22.76730         0.76224
C          8.60613        24.87554         0.45846
C          7.35831        25.57574         0.43944
C          8.58863        27.70005         0.37275
C          7.36115        27.02123         0.39228
C          8.62975        29.15805         0.54098
C          7.30753        29.93436         0.50132
C          8.55857        32.05121         0.04289
C          7.32161        31.34582         0.09454
C          8.58791        33.40862        -0.30480
C          7.32033        34.08939        -0.75773
C          8.61404        36.27901        -0.79355
C          7.35161        35.57329        -0.47465
C          8.60244        37.78177        -0.98426
C          7.32945        38.44223        -0.52343
C         11.09223         3.59491        -0.98352
C          9.84669         4.28135        -0.86464
C         11.01584         6.17363         0.28306
C          9.79555         5.62494        -0.32755
C         11.03590         7.62510         0.67152
C          9.74027         8.35529         0.77524
C         11.08323        10.54286         0.82513
C          9.74759         9.85727         1.06748
C         11.05659        11.96621         0.96320
C          9.84724        12.70561         0.95649
C         11.09447        14.87088         1.27695
C          9.84478        14.14212         1.15341
C         11.13218        16.25343         1.24718
C          9.88597        17.02667         1.55917
C         11.11986        19.14378         0.88827
C          9.85712        18.44357         1.05228
C         11.13352        20.55692         0.64791
C          9.82888        21.24242         0.33478
C         11.05659        23.43389         0.32698
C          9.84903        22.74376         0.49266
C         11.07116        24.86794         0.22595
C          9.83852        25.57974         0.30519
C         11.06481        27.72063         0.10312
C          9.83760        27.00913         0.24812
C         11.06701        29.17334         0.08009
C          9.88015        29.87448         0.26590
C         11.13657        32.08432        -0.07944
C          9.83127        31.34413         0.31653
C         11.02828        33.44925        -0.59351
C          9.81083        34.11875        -0.55025
C         11.06270        36.27509        -0.72277
C          9.78293        35.56952        -0.81182
C         11.03557        37.70798        -0.39719
C          9.86070        38.41066        -0.45075
C         13.55995         3.55395        -0.89964
C         12.31369         4.17406        -0.64635
C         13.58497         6.21607         0.19540
C         12.32605         5.46197         0.08223
C         13.55667         7.59224         0.84048
C         12.31267         8.38148         0.35633
C         13.56230        10.53100         0.78488
C         12.29085         9.84165         0.76442
C         13.59804        11.91651         0.95232
C         12.33957        12.63436         1.24940
C         13.69603        14.86054         1.48388
C         12.35745        14.11642         1.47508
C         13.59545        16.30510         1.03981
C         12.37483        16.99254         1.11750
C         13.61916        19.19338         1.12992
C         12.33084        18.42544         0.97614
C         13.58522        20.59470         0.57973
C         12.33517        21.27612         0.47868
C         13.48499        23.40678        -0.04274
C         12.30631        22.70979         0.23627
C         13.52053        24.83820        -0.16677
C         12.29143        25.57328         0.00485
C         13.52577        27.70994        -0.25762
C         12.28649        27.00114        -0.05435
C         13.54035        29.12735        -0.33938
C         12.30663        29.88410        -0.19715
C         13.53051        31.94273        -0.85913
C         12.30914        31.25865        -0.38533
C         13.51187        33.38877        -1.24279
C         12.18273        34.16045        -1.28695
C         13.49363        36.15788        -0.18112
C         12.23881        35.58282        -0.77639
C         13.49560        37.67310        -0.16608
C         12.29266        38.35875        -0.13263
C         16.00958         3.53729        -0.78870
C         14.76705         4.20230        -0.60916
C         16.02954         6.26866         0.03655
C         14.76739         5.57891        -0.12166
C         16.03460         7.67661         0.33181
C         14.82148         8.37815         0.56995
C         16.04088        10.50846         0.54137
C         14.80791         9.78509         0.62367
C         16.04918        11.94514         0.53503
C         14.80971        12.67765         0.74991
C         15.96719        14.82996         0.35661
C         14.79294        14.07511         0.78456
C         16.02944        16.29135         0.54698
C         14.82702        17.00979         0.77459
C         16.04590        19.10734         0.43998
C         14.83829        18.42319         0.69657
C         16.03258        20.55043         0.20213
C         14.77619        21.22945         0.21163
C         16.01084        23.36024        -0.49210
C         14.70867        22.61899        -0.27824
C         16.00137        24.83377        -0.46784
C         14.74294        25.53435        -0.38680
C         15.96990        27.68247        -0.57367
C         14.75007        26.97956        -0.41508
C         15.99947        29.09369        -0.54936
C         14.77461        29.82269        -0.47756
C         16.01262        31.95554        -0.63253
C         14.81109        31.25005        -0.60577
C         16.04143        33.40095        -0.77393
C         14.83180        34.17512        -1.29705
C         15.95617        36.24169        -0.50737
C         14.77674        35.55115        -0.67525
C         15.95435        37.67263        -0.21054
C         14.73466        38.35472        -0.09195
C         18.47418         3.49082        -0.69625
C         17.22112         4.18180        -0.55132
C         18.48634         6.26033        -0.04905
C         17.23342         5.57864        -0.18012
C         18.50715         7.66513         0.18974
C         17.27194         8.38101         0.32613
C         18.52478        10.50037         0.47648
C         17.27403         9.79980         0.45449
C         18.52517        11.92558         0.51238
C         17.27801        12.62369         0.46333
C         18.54973        14.82316         0.41845
C         17.29860        14.06992         0.23129
C         18.53343        16.23827         0.42319
C         17.26476        16.97330         0.43387
C         18.53176        19.18232         0.55534
C         17.26079        18.38465         0.41152
C         18.49777        20.43341        -0.31786
C         17.23514        21.23765        -0.09340
C         18.49864        23.35855        -0.38417
C         17.27111        22.63096        -0.29354
C         18.47211        24.78388        -0.52744
C         17.22363        25.49604        -0.56198
C         18.49933        27.67873        -0.63694
C         17.22560        26.94730        -0.96912
C         18.49326        29.09690        -0.56079
C         17.24874        29.81467        -0.58266
C         18.48770        31.93718        -0.42705
C         17.25789        31.22815        -0.52708
C         18.46269        33.40982        -0.10604
C         17.21060        34.10289        -0.57174
C         18.43030        36.25661        -0.47595
C         17.22700        35.54831        -0.58477
C         18.40872        37.69823        -0.35315
C         17.18355        38.36621        -0.18465
C         19.66320         4.13736        -0.50987
C         20.92788         6.23155        -0.07061
C         19.70311         5.54186        -0.20300
C         20.95012         7.59852         0.16116
C         19.75474         8.34698         0.27352
C         20.96170        10.52340         0.48561
C         19.75948         9.78853         0.42877
C         20.95905        11.90980         0.54748
C         19.75722        12.64379         0.54180
C         20.96540        14.82952         0.68826
C         19.76188        14.10156         0.56165
C         20.96821        16.21104         0.61508
C         19.76916        16.94269         0.47018
C         20.95672        19.09454         0.12674
C         19.80112        18.38830         0.34259
C         20.94874        20.52197        -0.00812
C         19.78240        21.22732        -0.17307
C         20.93807        23.40539        -0.47920
C         19.75244        22.66670        -0.34075
C         20.91220        24.79201        -0.59400
C         19.70365        25.50460        -0.58537
C         20.91656        27.69030        -0.40532
C         19.70441        26.96769        -0.56254
C         20.92802        29.06878        -0.38137
C         19.72393        29.80886        -0.46277
C         20.93150        32.01190        -0.44685
C         19.71579        31.25304        -0.42254
C         20.92568        33.39525        -0.53329
C         19.73308        34.14420        -0.47289
C         20.88556        36.34678        -0.57676
C         19.70837        35.57014        -0.51992
C         20.84142        37.74535        -0.51477
C         19.63341        38.41651        -0.37641
O         10.37480         7.71517         1.96355
O         15.24293        22.80557        -1.64030
O         13.47772        32.37026        -2.31321
O          7.98670        29.64896         1.77430
O         12.29207        13.22161         2.64204
O         16.51353        14.44366        -0.95188
O          6.81424        36.02572         0.81348
O         10.68678        31.95399         1.32001
O          8.28917        21.15629         2.33653
O         11.59011         5.36547         1.37848
O         18.55662        19.64885         1.93801
H         18.53806        18.86398         2.52430
O         15.10278        34.40094        -2.71591
H         14.84420        33.57118        -3.17876
O          7.33457        34.01205        -2.23028
H          7.35593        33.06479        -2.48180
O         11.81180        34.27118        -2.68978
H         12.12231        33.44573        -3.12855
O          5.01972         9.95915         1.55359
H          4.17815         9.58032         1.90583
O         13.77616        19.35497         2.59852
H         13.68761        18.46240         2.99872
O          3.60101        10.77502        -1.79626
H          4.51008        10.97455        -2.12858
O         12.35853         8.37452        -1.10454
H         13.15691         8.87256        -1.38267
O         18.43670        19.98051        -1.70054
H         18.31385        20.76692        -2.27242
O          4.73457        13.71472         2.66602
H          5.30265        12.92956         2.82879
O         14.14134        14.95530         2.87603
H         13.68526        14.21923         3.35453
O          8.63907        38.02597        -2.44633
H          7.78657        37.66681        -2.80035
O          1.14078        15.44518         2.48173
H          1.21991        16.07423         3.22888
O          7.87530         6.35764        -2.61783
H          7.17061         6.04615        -3.22551
O          5.96258        37.68016        -2.36852
H          5.72212        38.57650        -2.68822
O         13.43372        35.74806         1.24486
H         12.66585        36.20834         1.64799
O         13.44433         7.39206         2.27001
H         12.72364         6.73138         2.41253
O          9.94476        17.17181         3.03599
H          9.09578        17.57360         3.32371
O         17.19318        26.90908        -2.45074
H         16.40139        26.39060        -2.71059
O         18.41271        33.47716         1.37652
H         19.22463        33.03854         1.71003
O          6.25932        10.83995        -1.75794
H          7.07897        11.32802        -1.98377
O          2.35320        27.17650         2.28423
H          1.51734        26.76794         2.59634
O          4.80319        18.47451         3.22419
H          5.37050        17.72471         3.54161
O          9.53976        10.01401         2.50425
H         10.02451         9.27356         2.93984
O          4.81587        25.45150        -1.36035
H          4.85382        24.49782        -1.58840
O          0.20964        10.38331         1.04107
H          0.02457        11.20831         1.53767
O          6.10327        16.06861         3.16816
H          5.51759        15.28253         3.33384
O          9.56111        20.98950        -1.09358
H         10.31990        21.34409        -1.60432
O          2.48351         9.50851         1.42164
H          1.55095         9.48709         1.75745
O          1.53623        15.90495        -1.11100
H          1.57611        15.26764        -1.85412
H          1.49403         3.06636        -3.32952
H         -0.60165         4.40460        -3.49456
H         -0.68316         6.73529        -2.68392
H         -0.43235         8.73988        -2.58053
H         -0.55834        10.97280        -1.64824
H         -0.92376        12.48311        -0.26442
H         -0.90320        14.91385        -0.19588
H         -1.03082        16.49920         1.22433
H         -1.01803        18.90909         1.05164
H         -1.01758        20.77022         0.91390
H         -1.01374        23.18167         0.71736
H         -1.00692        25.04257         0.52219
H         -1.01669        27.42303         0.11831
H         -1.04038        29.32394        -0.01574
H         -1.04845        31.74428        -0.16678
H         -1.05572        33.65416         0.01677
H         -1.02265        36.11052         0.01758
H          0.21250        38.24866         0.02135
H          3.87226         2.88499        -2.66061
H          2.33965        39.50137        -0.08107
H          6.24317         2.70619        -1.99175
H          4.74931        39.54086        -0.41628
H          8.66721         2.59097        -1.54317
H          7.32561        39.54668        -0.52137
H         11.08938         2.59674        -1.44735
H          9.85924        39.49227        -0.24477
H         13.58025         2.54263        -1.33258
H         12.29822        39.45178         0.00269
H         16.00732         2.48563        -1.11215
H         14.73557        39.45267        -0.01050
H         18.45645         2.42270        -0.95787
H         17.18119        39.45643        -0.03456
H         20.61428         3.59576        -0.61856
H         21.87218         5.67725        -0.17124
H         21.92345         8.10045         0.24217
H         21.92884        10.00417         0.46924
H         21.92568        12.42907         0.57573
H         21.92104        14.30857         0.82879
H         21.92632        16.74129         0.69573
H         21.92755        18.58413         0.05325
H         21.92130        21.03418         0.00312
H         21.91031        22.89582        -0.49440
H         21.86949        25.32001        -0.68841
H         21.87240        27.15911        -0.31293
H         21.89093        29.58613        -0.27938
H         21.89736        31.49230        -0.48844
H         21.88753        33.90938        -0.67081
H         21.86650        35.85645        -0.63904
H         21.78147        38.31408        -0.54632
H         19.61412        39.51246        -0.29107
