         231
 CSIRO Nanostructure Databank - Neutral Graphene Oxide Data Set
C        -11.15803         0.68248        -0.21442
C         -9.95593         1.51934        -0.21670
C         -8.67794         0.77426        -0.27079
C         -7.37236         1.44439        -0.19299
C         -6.21507         0.72576         0.34289
C         -5.01923         1.51661         0.72158
C         -3.69256         0.78723         0.95653
C         -2.45639         1.52540         0.62384
C         -1.21653         0.77181         0.27322
C          0.08907         1.51772         0.25237
C          1.34366         0.76813         0.51496
C          2.48198         1.44881         0.80015
C          3.75951         0.75901         1.24523
C          5.02001         1.56308         0.90836
C          6.32486         0.83298         0.87715
C          7.52355         1.51959         0.31041
C          8.60725         0.71534        -0.27773
C          9.79417         1.37021        -0.74286
C         11.04846         0.62560        -0.89103
C        -10.14287         2.88968        -0.14810
C         -9.09491         3.88341        -0.36663
C         -7.21619         2.77520        -0.48592
C         -6.11697         3.59765        -0.05933
C         -4.93824         2.93194         0.33778
C         -3.73280         3.64112         0.49857
C         -2.48141         2.90252         0.57738
C         -1.23172         3.68582         0.24185
C          0.05095         2.96784         0.55778
C          1.19279         3.65222         0.80748
C          2.47112         2.92773         0.64785
C          3.74271         3.67789         0.58061
C          5.00017         2.89627         0.63944
C          6.14600         3.61895         0.03015
C          7.40330         2.88869        -0.26016
C          8.66922         3.60669        -0.57061
C          9.82311         2.77734        -0.81851
C         -8.84068         5.09099         0.20537
C         -7.47608         5.79390         0.27312
C         -6.19971         5.00883        -0.05657
C         -4.98081         5.71295         0.06685
C         -3.76199         5.04771         0.29443
C         -2.54651         5.82612         0.63581
C         -1.25204         5.09157         0.80443
C          0.00314         5.86902         0.86590
C          1.23169         5.11457         1.07276
C          2.58596         5.88163         1.08390
C          3.79321         5.15493         0.70120
C          4.99548         5.79964         0.31769
C          6.15455         5.08366         0.02000
C          7.45959         5.82203        -0.19666
C          8.63195         4.97586        -0.65919
C         -7.42882         7.20877        -0.28300
C         -6.24791         7.88505        -0.38481
C         -4.95827         7.16057        -0.25980
C         -3.68459         7.94025        -0.11925
C         -2.47647         7.27822         0.42259
C         -1.30275         7.96540         0.57061
C         -0.02111         7.27854         0.77473
C          1.19044         7.99764         0.59357
C          2.53004         7.42912         1.05428
C          3.75573         8.06298         0.36659
C          5.01478         7.27467         0.12310
C          6.05094         7.77750        -0.83168
C          7.19133         7.05857        -1.03286
C         -6.15464         9.31821        -0.63115
C         -4.99787        10.02648        -0.49956
C         -3.72494         9.42074        -0.13046
C         -2.58927        10.12024         0.13076
C         -1.30364         9.48170         0.60720
C         -0.06363        10.01876        -0.05504
C          1.13492         9.33970         0.05937
C          2.34369         9.90660        -0.51608
C          3.56319         9.29165        -0.44754
C          4.68321         9.78961        -1.22204
C          5.82294         9.07639        -1.43409
C        -11.14258        -0.66650        -0.17915
C         -9.87959        -1.44005         0.07912
C         -8.66158        -0.59741        -0.17719
C         -7.35448        -1.30882        -0.42984
C         -6.19738        -0.64168         0.28119
C         -5.01859        -1.44882         0.66579
C         -3.72293        -0.70928         0.94761
C         -2.48159        -1.45836         0.57855
C         -1.20527        -0.73389         0.33371
C          0.06904        -1.47788         0.49459
C          1.32330        -0.71194         0.34000
C          2.63004        -1.43833         0.37484
C          3.92358        -0.63309         0.54712
C          5.07453        -1.42012         1.16709
C          6.36700        -0.66908         1.04114
C          7.51041        -1.40657         0.45876
C          8.37275        -0.66780        -0.36523
C         10.24463        -1.72246        -0.65009
C         11.28974        -0.71193        -0.72290
C         -9.79859        -2.80675        -0.57395
C         -8.62242        -3.50553        -0.58453
C         -7.36924        -2.80981        -0.09078
C         -6.06125        -3.48826        -0.55200
C         -4.88091        -2.85341         0.17712
C         -3.72693        -3.55056         0.33469
C         -2.46932        -2.93078         0.93143
C         -1.17297        -3.61328         0.50484
C          0.08913        -2.86918         0.53155
C          1.35906        -3.60188         0.53759
C          2.61882        -2.91144         0.57396
C          3.81935        -3.61230         0.67254
C          5.07918        -2.94750         1.19912
C          6.37475        -3.56911         0.70152
C          7.54120        -2.86060         0.43153
C          8.79996        -3.58361         0.11293
C         10.11278        -2.90279         0.01910
C         -8.53946        -4.92255        -0.85664
C         -7.38291        -5.65688        -0.63920
C         -6.12435        -4.98305        -0.33642
C         -4.96758        -5.66899        -0.13089
C         -3.64545        -4.93802        -0.25522
C         -2.42233        -5.72342         0.17003
C         -1.17997        -4.97970         0.33646
C          0.07483        -5.73211         0.59319
C          1.36954        -5.01821         0.59168
C          2.57590        -5.76224         0.56383
C          3.83500        -5.05122         0.60826
C          5.05524        -5.74468         0.61591
C          6.33829        -5.03462         0.73846
C          7.61280        -5.77095         0.30551
C          8.77969        -4.94792        -0.02927
C         -7.34323        -7.09254        -0.81943
C         -6.20088        -7.82443        -0.58625
C         -4.99191        -7.14320        -0.07120
C         -3.67805        -7.87889        -0.04515
C         -2.42873        -7.08831         0.04929
C         -1.15037        -7.81642        -0.12910
C          0.05544        -7.22395         0.52706
C          1.33654        -8.04327         0.61178
C          2.59523        -7.20368         0.42864
C          3.78642        -7.89326         0.28205
C          5.10540        -7.25214         0.64242
C          6.28834        -7.82283        -0.12871
C          7.44974        -7.12321        -0.25998
C         -6.09978        -9.24775        -0.81913
C         -4.91064        -9.92021        -0.79662
C         -3.63283        -9.27701        -0.54784
C         -2.44274        -9.92040        -0.75492
C         -1.14271        -9.23162        -0.60027
C          0.14690        -9.95877        -0.54055
C          1.31302        -9.33302        -0.18900
C          2.59271        -9.95354        -0.39253
C          3.77734        -9.28139        -0.14544
C          5.03424        -9.89811        -0.52432
C          6.19631        -9.19593        -0.58178
O         -7.13319        -1.13879        -1.87678
H         -7.16726        -0.17620        -2.06737
O         -7.29678         5.98863         1.72610
H         -7.98096         6.62054         2.03316
O          7.34551         1.45359         1.76543
O         -8.14622         3.41506        -1.30468
O         -1.19682         9.85127         2.02904
H         -0.33792         9.50788         2.35725
O         -1.22445         3.87167        -1.20615
H         -1.06218         2.97991        -1.60342
O          3.63113         0.60411         2.66841
H          4.48115         0.22770         3.00585
O         -3.43884        -4.77208        -1.69588
O          7.24733        -5.66776         1.72776
H         -4.19722        -4.23291        -2.04150
O         -9.86876        -1.71011         1.54292
H        -10.64473        -2.27667         1.74153
O          9.08246        -1.35109        -1.35929
O          5.34176        -7.62518         2.04624
H          6.10921        -7.07818         2.34695
O          4.88959         8.12865         1.30141
O          1.42671        -8.52609         1.98519
H          1.12570        -7.78617         2.56283
O          2.58838         7.87688         2.43616
H          2.19366         7.15835         2.98478
O          5.02984        -3.34020         2.60896
H          5.62644        -2.72531         3.09629
O          7.87570         6.31777         1.12608
H          7.18359         6.93804         1.44495
O          4.41482        -0.34821        -0.78672
H          3.62506        -0.27395        -1.37767
O         -4.49854        -1.26963         2.02696
O         -7.35902        -2.92425         1.34803
H         -8.18598        -2.50004         1.69062
O          5.76969        -0.95537         2.37209
O         -0.19997        -6.57664         1.80913
O         -5.82817        -3.36714        -1.98034
H         -6.07706        -2.45332        -2.26718
O         -2.07561         5.35831         1.97521
O         -2.49092        -3.03713         2.37339
H         -2.67379        -3.96809         2.61790
O         -2.05338        -1.24380        -0.79158
O          1.97058         5.38690         2.32863
O          6.42523         3.01915        -1.33506
O          2.01575        -1.10146        -0.92457
O         -0.60633         1.21061        -1.00631
O         -4.48842        -7.73410         1.18439
O         -0.96385        -8.08164        -1.56972
O         -4.07689         7.38103        -1.43124
O          3.02286         3.30338        -0.69586
O         -4.46207         1.32640         2.06371
H         12.33855        -1.04482        -0.66997
H         11.93752         1.26796        -1.00888
H         10.77156         3.27344        -1.07673
H          9.55262         5.52545        -0.91209
H          7.97649         7.44404        -1.70169
H          6.61466         9.48991        -2.07614
H          4.55742        10.76562        -1.71473
H          2.23993        10.83230        -1.10290
H         -0.07733        11.02457        -0.50111
H         -2.60957        11.22132         0.10303
H         -5.01699        11.11723        -0.64602
H         -7.08584         9.85217        -0.87516
H         -8.37802         7.75927        -0.38607
H         -9.57541         5.48083         0.92870
H        -11.16764         3.25043         0.04225
H        -12.12361         1.20509        -0.30669
H        -12.09111        -1.22544        -0.21698
H        -10.74042        -3.30736        -0.85264
H         -9.46151        -5.44807        -1.15174
H         -8.25213        -7.60020        -1.17855
H         -7.02127        -9.79399        -1.07174
H         -4.89718       -10.99442        -1.03579
H         -2.44006       -10.96940        -1.08982
H          0.18785       -10.96829        -0.98014
H          2.62555       -10.95967        -0.83872
H          5.01037       -10.94611        -0.85826
H          7.11169        -9.67309        -0.96317
H          8.30545        -7.56947        -0.79057
H          9.68721        -5.47004        -0.36871
H         10.96796        -3.37065         0.52854
