         349
 CSIRO Nanostructure Databank - Neutral Graphene Oxide Data Set
C          1.31380         1.92432         0.42423
C          1.32056         3.31250         0.79509
C          2.35103         1.07112         0.10010
C          2.41613         4.16766         0.91260
C          1.19211         6.36782         0.96480
C          1.18193         7.79270         0.86314
C          2.33926         5.61488         0.80354
C          2.27868         8.52691         0.44889
C          1.10912        10.73145         0.23646
C          1.12247        12.14167         0.03657
C          2.25440         9.95329         0.18841
C          2.27412        12.84981        -0.25710
C          1.13926        15.10350        -0.32002
C          1.16510        16.46737        -0.37967
C          2.33966        14.31142        -0.17818
C          2.34006        17.21660         0.04953
C          2.53647        18.63428        -0.32093
C          3.72793         1.39486         0.37281
C          3.74606         3.58421         0.91479
C          4.91177         1.04246        -0.21944
C          4.85126         4.14251         0.35006
C          3.60678         6.35170         0.53096
C          3.50505         7.77012         0.06492
C          4.88973         5.61615         0.27071
C          4.79870         8.47738        -0.23017
C          3.50979        10.59538        -0.27318
C          3.50452        12.08049        -0.52575
C          4.81263         9.94140         0.15725
C          4.82148        12.79096        -0.60731
C          3.57126        14.96104        -0.09439
C          3.65584        16.37815         0.24323
C          4.83457        14.28257        -0.44009
C          4.92642        17.09931         0.14745
C          3.71747        19.25717        -0.16013
C          4.91102        18.56988         0.48580
C          6.11614         1.84752         0.02449
C          6.06199         3.35980        -0.11782
C          7.37858         1.23975         0.06147
C          7.31082         4.17181         0.28318
C          6.05948         6.28421        -0.40186
C          6.09962         7.76275        -0.27829
C          7.33459         5.49138        -0.50539
C          7.28643         8.44898        -0.26144
C          6.09414        10.66960        -0.19509
C          6.07437        12.03885        -0.36451
C          7.33340         9.91226        -0.22570
C          7.32132        12.81499        -0.28947
C          6.12186        14.99304        -0.28342
C          6.12308        16.41717        -0.13931
C          7.31902        14.29472        -0.47465
C          7.36645        17.12168        -0.27755
C          6.20939        19.25193         0.17652
C          7.36848        18.57403        -0.12812
C          8.59781         1.95177         0.24688
C          8.60694         3.41230         0.27486
C          9.82439         1.28298         0.18341
C          9.76785         4.12315         0.39462
C          8.65339         6.21034        -0.77571
C          8.54172         7.76060        -0.75979
C          9.92999         5.44515        -0.32854
C          9.82805         8.45633        -0.38941
C          8.56244        10.56128        -0.41379
C          8.61097        12.03776        -0.32520
C          9.81389         9.84183        -0.43457
C          9.82796        12.75790        -0.82753
C          8.53525        15.00561        -0.65459
C          8.54459        16.41819        -0.58601
C          9.76861        14.25356        -1.01768
C          9.78033        17.19496        -0.99799
C          8.62368        19.27073        -0.19928
C          9.81784        18.60859        -0.45904
C         11.05975         1.96224         0.41832
C         11.00190         3.40117         0.88894
C         12.26957         1.32450         0.38665
C         12.28093         4.17316         0.66343
C         11.03579         6.34652         0.15446
C         11.01777         7.71061        -0.00374
C         12.19880         5.67211         0.85624
C         12.18814         8.51770         0.55990
C         11.12502        10.55995        -0.67975
C         11.11811        12.07187        -0.57227
C         12.29986         9.92451         0.01165
C         12.28895        12.76476        -0.44071
C         11.07033        15.00462        -1.04726
C         11.07672        16.44600        -0.77156
C         12.36137        14.22095        -0.71523
C         12.27073        17.11271        -0.57140
C         11.06055        19.26171        -0.32930
C         12.29201        18.56294        -0.37639
C         13.48900         2.01686         0.92945
C         13.47178         3.51201         0.66035
C         14.77825         1.35781         0.54520
C         14.74713         4.22687         0.67627
C         13.51317         6.37598         0.64283
C         13.49864         7.76040         0.49817
C         14.73121         5.63848         0.73172
C         14.74327         8.47473         0.34126
C         13.47676        10.61936         0.08541
C         13.53407        12.07686        -0.09615
C         14.74110         9.92040         0.24407
C         14.67315        12.78203         0.20255
C         13.51098        14.98684        -0.26644
C         13.51868        16.38216        -0.38679
C         14.63122        14.27520         0.45470
C         14.73383        17.11540        -0.21332
C         13.50328        19.22851        -0.14839
C         14.74916        18.53294        -0.09417
C         15.97052         2.05525         0.51365
C         15.96055         3.49495         0.68780
C         17.20901         1.35632         0.23043
C         17.24035         4.19463         0.82353
C         15.99498         6.40453         1.02949
C         15.94501         7.79518         0.47426
C         17.27408         5.67425         0.68096
C         17.19675         8.45388         0.13213
C         15.92015        10.63588         0.23329
C         15.93511        12.06843         0.67908
C         17.17235         9.96079        -0.04986
C         17.23000        12.78718         0.32868
C         15.97642        14.91166         0.10925
C         16.00603        16.39764        -0.21972
C         17.23238        14.26954         0.67408
C         17.26458        17.12511        -0.05114
C         15.98061        19.21416         0.07791
C         17.24271        18.55031         0.09567
C         18.43855         1.98630         0.17110
C         18.52956         3.41565         0.54015
C         19.66518         1.32635        -0.15703
C         19.72263         4.16184         0.14940
C         18.44652         6.33714         0.49127
C         18.50261         7.85027         0.58827
C         19.73168         5.61782         0.38079
C         19.69002         8.54659        -0.06239
C         18.44849        10.69792        -0.09281
C         18.38254        12.14157        -0.05532
C         19.61940         9.96755        -0.29461
C         19.57929        12.98112        -0.49809
C         18.48941        15.01068         0.30400
C         18.47543        16.37706         0.06881
C         19.75546        14.19395         0.42685
C         19.75787        17.09861        -0.04865
C         18.43988        19.26920         0.33669
C         19.74924        18.67673         0.17051
C         20.86990         2.02278        -0.28386
C         20.88269         3.48166        -0.22696
C         22.12098         1.35473        -0.45289
C         22.09992         4.18888        -0.47201
C         20.95773         6.38885         0.02438
C         20.89040         7.85345        -0.22765
C         22.04770         5.66782        -0.74411
C         22.12063         8.49249        -0.55883
C         20.83251        10.67279        -0.77490
C         20.86595        12.17886        -0.73767
C         22.12540         9.92093        -0.84131
C         22.17489        12.84504        -0.49331
C         21.01627        14.95024         0.09644
C         20.99883        16.40274         0.48570
C         22.15431        14.28493        -0.26180
C         22.23328        17.18608         0.17472
C         20.98964        19.24424         0.66906
C         22.23745        18.57372         0.48783
C         23.32237         2.04995        -0.55402
C         23.32164         3.50783        -0.60994
C         24.58174         1.36826        -0.52310
C         24.54596         4.22495        -0.71513
C         23.36811         6.37420        -0.58186
C         23.35981         7.78860        -0.57164
C         24.57413         5.64351        -0.60246
C         24.61317         8.51083        -0.43858
C         23.45790        10.69181        -0.65292
C         23.37208        12.14902        -0.38938
C         24.62260         9.89597        -0.27013
C         24.61416        12.84294        -0.08142
C         23.44690        14.99929        -0.41760
C         23.47404        16.50796        -0.18875
C         24.67209        14.21763        -0.16781
C         24.72985        17.15751         0.21655
C         23.48593        19.24346         0.65630
C         24.72115        18.54383         0.60108
C         25.78898         2.03565        -0.63321
C         25.81322         3.48674        -1.06333
C         27.02167         1.35497        -0.45111
C         27.06407         4.22540        -0.65188
C         25.83140         6.35693        -0.48242
C         25.84955         7.75403        -0.36673
C         27.05953         5.58934        -0.46107
C         27.12465         8.47200        -0.34686
C         25.85635        10.52373         0.33254
C         25.81488        12.05845         0.35318
C         27.10151         9.99574        -0.43866
C         27.13019        12.75519         0.42382
C         25.94591        14.97830        -0.10127
C         25.91589        16.41786         0.26553
C         27.22439        14.20920         0.09707
C         27.09401        17.02680         0.76385
C         25.96330        19.18734         0.84080
C         27.18625        18.46832         0.87890
C         28.24568         2.02261        -0.43011
C         28.30194         3.46446        -0.53958
C         29.47596         1.30104        -0.25040
C         29.52292         4.12050        -0.48301
C         28.35325         6.29386        -0.08827
C         28.30771         7.79024        -0.35315
C         29.56069         5.60836        -0.75978
C         29.60048         8.51649        -0.43929
C         28.39965        10.64410         0.03055
C         28.41806        12.01301         0.38994
C         29.61695         9.94277        -0.04116
C         29.62246        12.70190         0.62181
C         28.35918        14.87694         0.75599
C         28.16474        16.16981         1.16655
C         29.63922        14.14551         1.12015
C         29.97562        17.22678         1.01178
C         28.43063        19.16229         0.81813
C         29.70608        18.54509         0.56787
C         30.67192         1.95469        -0.16278
C         30.73729         3.38991        -0.26034
C         31.93504         4.07965        -0.07519
C         30.86647         6.26304        -0.35515
C         30.90867         7.74321        -0.41720
C         31.97442         5.50249        -0.07986
C         32.09713         8.48310         0.03759
C         30.84644        10.59906         0.21053
C         30.85744        12.00894         0.47840
C         32.06380         9.81991         0.26411
C         32.07040        12.76010         0.49668
C         30.90135        14.91345         0.66635
C         30.94897        16.36078         0.46278
C         32.06174        14.15716         0.48532
C         31.90051        16.99611        -0.37593
C         30.72022        19.13961        -0.22959
C         31.80300        18.36651        -0.65386
O         20.68532        11.46417        -2.00655
O         23.51585        15.90930        -1.56103
O         26.85639        14.64700        -1.23832
O         20.74907         6.03013         1.41937
O         29.14009        16.72882         2.02584
O          4.61712         6.22132         1.59842
O          6.45373         5.62005        -1.65279
O          3.91093         8.06074        -1.31629
O          6.04613         3.10016        -1.50907
O         11.96856        14.57501        -2.09448
O         18.08793         3.70150         1.91761
O         22.94407        10.30419        -1.97179
O          2.81844        16.82263         1.37125
O          8.33187         7.89420        -2.20617
O          3.42312        11.09871        -1.62590
O         16.07885        15.30766        -1.25220
O         26.32583        12.56134         1.65183
O          9.61996        13.33501        -2.15872
O         17.14630         9.02104        -1.20417
O          4.83636        13.64973        -1.79746
O         10.26952         4.90181        -1.64453
O         30.34008         8.26649        -1.69873
O          8.09895        12.52122         0.95881
O          3.85273         2.29634         1.44657
O         19.92223        17.95151        -1.13943
O         15.84415        12.03978         2.15535
H         16.40371        12.78750         2.49192
O          4.75586         9.97238         1.61879
H          5.57756         9.57098         1.97326
O         19.86715        13.73460         1.81238
H         20.29703        14.47399         2.30634
O          7.14031         4.60061         1.66822
H          7.19135         3.81134         2.24753
O         13.37480         1.89560         2.39606
H         12.49125         2.27559         2.63654
O          8.95806         6.13122        -2.26821
H          8.20073         5.65856        -2.70682
O         26.91013        10.38159        -1.81967
H         27.66602        10.04543        -2.34530
O         10.86427         3.31188         2.35843
H         10.95622         4.23787         2.69569
O         28.54052         6.15709         1.35004
H         27.74688         6.52342         1.79426
O         18.58911         8.12002         2.02955
H         19.36926         7.61697         2.36020
O          9.66441        17.32192        -2.45477
H         10.50176        17.70576        -2.79093
O         19.22166        13.56239        -1.76933
H         19.37771        12.87541        -2.45776
O         29.72540        14.06421         2.57635
H         29.67766        14.99083         2.90810
O         17.17988        14.34764         2.14566
H         18.09713        14.11531         2.44329
O         11.88435         8.68318         1.98742
H         11.81559         7.77241         2.36941
O         25.95878        10.04615         1.69030
H         26.25979        10.81318         2.23715
O         21.64389         5.81281        -2.14992
H         22.35453         5.43174        -2.70797
O         25.85511         3.44091        -2.54112
H         26.23138         4.29083        -2.85498
O         29.42183         5.75594        -2.19961
H         29.72408         6.67236        -2.42251
O          4.72021        18.69182         1.93929
H          3.93134        18.13532         2.15588
O         11.91541         5.85495         2.31933
H         12.75356         5.65430         2.79394
O         14.36546        14.44608         1.87781
H         14.63758        13.61698         2.33736
O         20.82860        16.38617         1.97030
H         20.99124        17.30293         2.28754
O         11.38102        10.33169        -2.11410
H         10.70485        10.82520        -2.62728
O         16.03793         6.56439         2.49581
H         16.84043         7.10523         2.69269
H          0.30323         1.53586         0.21602
H          0.32369         3.78231         0.79365
H          2.10889         0.12272        -0.40286
H          0.24814         5.86783         1.22605
H          0.24064         8.30905         1.09964
H          0.14917        10.26920         0.50795
H          0.18188        12.68348         0.21078
H          0.20817        14.58181        -0.58262
H          0.28992        17.02365        -0.74665
H          1.68938        19.15720        -0.79201
H          4.96053         0.22848        -0.95892
H          3.82310        20.31345        -0.45080
H          7.43576         0.14229        -0.01013
H          6.24951        20.34261         0.32099
H          9.84487         0.20505        -0.03721
H          8.64468        20.33846         0.06827
H         12.32421         0.24954         0.15299
H         11.07215        20.33020        -0.06426
H         14.78317         0.26706         0.39556
H         13.49721        20.31999        -0.01323
H         17.14539         0.27844         0.01786
H         15.96344        20.30948         0.17792
H         19.65913         0.23304        -0.28213
H         18.37523        20.29586         0.72522
H         22.13667         0.25440        -0.44076
H         20.96765        20.24500         1.12334
H         24.58312         0.28489        -0.32509
H         23.48988        20.31927         0.88428
H         27.00210         0.26699        -0.28227
H         25.97816        20.27834         0.98377
H         29.43411         0.20473        -0.17235
H         28.36979        20.25363         0.67384
H         31.60505         1.39389        -0.00679
H         32.86106         3.52121         0.12157
H         32.93613         5.98484         0.14775
H         33.03573         7.93541         0.19986
H         32.99025        10.31671         0.58312
H         33.03382        12.24749         0.37831
H         33.01894        14.67628         0.32692
H         32.70960        16.41243        -0.83578
H         30.61635        20.18004        -0.56725
H         32.56636        18.82900        -1.29525
