         576
 CSIRO Nanostructure Databank - Neutral Graphene Oxide Data Set
C          6.19944        19.13748        -1.76775
C          6.14647        20.53406        -1.56013
C          4.90704        21.28919        -1.64846
C          6.02660        23.41082        -1.10054
C          4.84870        22.63134        -1.40127
C          6.00439        24.76704        -0.87074
C          8.77218        14.93768        -2.57130
C          8.70766        16.39088        -2.17589
C          7.51790        17.00553        -1.96849
C          8.59490        19.13630        -1.33526
C          7.41961        18.44135        -1.70287
C          8.52258        20.50474        -1.03619
C          7.32518        21.22068        -1.19871
C          8.43086        23.38693        -0.39065
C          7.36444        22.72876        -1.23544
C          8.40866        24.74575        -0.24578
C          7.21037        25.51249        -0.56411
C          8.38092        27.65956        -0.12337
C          7.21687        26.89816        -0.48010
C          8.37157        29.03381         0.00636
C         11.19896        10.61394        -1.80266
C         11.25677        12.12243        -1.94170
C         10.06191        12.84486        -2.09646
C         11.26575        14.95162        -1.99167
C         10.06378        14.24309        -2.18511
C         11.28751        16.43596        -2.08183
C          9.97122        17.22913        -2.26114
C         11.13555        19.26160        -1.28153
C          9.89850        18.36843        -1.21772
C         11.03550        20.62931        -0.69859
C          9.68338        21.17154        -0.39703
C         10.91079        23.31994         0.28016
C          9.63412        22.61303        -0.02844
C         10.73189        24.69593         0.87284
C          9.66641        25.45882         0.10897
C         10.75317        27.67713         0.79389
C          9.65566        26.94899         0.12369
C         10.72513        29.04533         0.84807
C          9.55073        29.77648         0.37406
C         10.72930        31.95067         0.49803
C          9.56383        31.15927         0.24799
C         10.79632        33.29618         0.21294
C         13.53367         6.28024        -1.61884
C         13.54427         7.73156        -1.65312
C         12.45963         8.44303        -2.09560
C         13.70238        10.58584        -1.69592
C         12.48746         9.93031        -2.30414
C         13.79244        12.08669        -1.88907
C         12.46793        12.81906        -1.82803
C         13.69198        14.93048        -1.33671
C         12.47554        14.24035        -1.75211
C         13.68644        16.33608        -1.10718
C         12.51273        17.13643        -1.53565
C         13.53034        19.22744        -0.63413
C         12.44660        18.56829        -1.13208
C         13.51484        20.75857        -0.52539
C         12.19138        21.18672         0.12517
C         13.25727        23.28442         1.14361
C         12.10450        22.68491         0.33694
C         13.22415        24.80823         1.20448
C         12.02624        25.46620         1.02748
C         13.18931        27.65414         1.67610
C         11.89814        26.89966         1.32920
C         13.21982        29.10607         1.46372
C         11.90882        29.80591         1.33218
C         13.20521        32.00076         1.01150
C         11.91126        31.29008         1.09964
C         13.21350        33.35717         0.83629
C         11.99437        34.07560         0.44851
C         13.13872        36.36093         0.50653
C         12.00505        35.42020         0.17549
C         13.30420        37.47100        -0.50283
C         15.89320         6.23337        -0.96178
C         14.65277         5.57334        -1.31453
C         15.90392         7.68176        -0.89993
C         14.76649         8.40946        -1.24964
C         16.07632        10.58124        -0.98161
C         14.77621         9.86017        -1.26073
C         15.83203        11.93929        -0.36021
C         14.80156        12.75440        -0.99872
C         16.04631        14.79136        -0.43039
C         14.79437        14.13574        -0.86991
C         16.03936        16.33535        -0.32378
C         14.76307        17.00594        -0.50913
C         15.85580        19.09648         0.49805
C         14.65123        18.42209        -0.09358
C         15.97133        20.59308         0.47124
C         14.74098        21.40514         0.13473
C         15.75790        23.32324         1.33049
C         14.63617        22.72891         0.78880
C         15.66055        24.71488         1.84666
C         14.43841        25.51406         1.53699
C         15.66779        27.67086         1.85815
C         14.45718        26.90247         1.67190
C         15.66882        29.05642         1.72420
C         14.42509        29.77277         1.47355
C         15.75326        31.95509         1.06960
C         14.46037        31.21212         1.08666
C         15.76299        33.43188         0.99131
C         14.46731        34.12972         1.00733
C         15.73613        36.22927         0.39888
C         14.45143        35.62695         0.78661
C         15.75119        37.50032        -0.23666
C         14.49601        38.04535        -0.74886
C         18.26922         6.14016        -0.28779
C         17.03866         5.50756        -0.69495
C         18.26168         7.58589        -0.12132
C         17.12061         8.34229        -0.45559
C         18.29205        10.39856         0.21188
C         17.15465         9.75869        -0.31798
C         18.23298        11.81909         0.63087
C         16.99446        12.61840         0.35821
C         18.35604        14.73191         0.50734
C         17.11288        14.06755         0.23855
C         18.37850        16.20283         0.65629
C         17.15452        16.97673         0.40351
C         18.35469        19.05042         1.00336
C         17.08845        18.30739         0.69734
C         18.17455        20.41552         1.63341
C         17.02892        21.23354         1.26273
C         18.25224        23.28127         1.87551
C         17.02143        22.60943         1.50404
C         18.27389        24.73048         2.35911
C         16.91575        25.44025         2.23429
C         18.22973        27.66569         2.02023
C         16.92091        26.95079         2.21170
C         18.24272        29.13306         1.81105
C         16.94022        29.82518         1.92332
C         18.24352        32.02601         1.45316
C         16.97384        31.32349         1.64656
C         18.24090        33.40311         1.12339
C         16.95678        34.11717         0.95757
C         18.16760        36.24314         0.50553
C         16.94856        35.54301         0.65087
C         18.18404        37.57134        -0.00049
C         16.96424        38.15894        -0.42754
C         20.64852         6.03277         0.52343
C         19.41764         5.40576        -0.06351
C         20.66969         7.52129         0.32762
C         19.48746         8.26000         0.21672
C         20.75389        10.37828         0.67704
C         19.50916         9.69230         0.38513
C         20.79644        11.81806         0.85593
C         19.51409        12.55449         0.88774
C         20.82779        14.76121         0.86065
C         19.51853        14.01794         0.77758
C         20.65381        16.01674         1.73169
C         19.45581        16.80102         1.25151
C         20.71082        18.95963         1.60430
C         19.39545        18.21660         1.77070
C         20.73141        20.34197         1.63735
C         19.49374        21.12965         1.88397
C         20.74067        23.27736         1.69671
C         19.47287        22.59836         1.84557
C         20.80009        24.79723         1.86504
C         19.45643        25.51667         1.82936
C         20.68375        27.64924         1.50407
C         19.44695        26.87989         1.71841
C         20.68966        29.10772         1.59544
C         19.44536        29.82143         1.72935
C         20.75253        32.00666         1.49938
C         19.48594        31.32969         1.97891
C         20.75802        33.52235         1.55536
C         19.44398        34.13459         1.10678
C         20.72641        36.33995         0.69321
C         19.40993        35.59057         0.94050
C         20.65730        37.64918         0.00620
C         19.42187        38.25016        -0.22483
C         23.19000         5.96545         0.30269
C         21.94521         5.32588         0.22770
C         23.21033         7.45818         0.19202
C         21.93846         8.24141         0.27868
C         23.22212        10.30525         0.94582
C         21.96473         9.67495         0.61852
C         23.16624        11.67831         1.61227
C         21.97325        12.48803         1.15179
C         23.20230        14.58252         1.59082
C         22.02552        13.92277         1.26892
C         23.18140        16.04834         1.99793
C         21.93475        16.82218         1.63068
C         23.12462        18.89471         0.87263
C         21.92447        18.17938         1.45024
C         23.14081        20.39495         1.18453
C         21.96276        21.08614         1.42326
C         23.12140        23.27878         1.02947
C         21.89544        22.55111         1.44714
C         23.08139        24.74486         0.77373
C         21.74629        25.49659         0.87076
C         23.13881        27.65257         1.59529
C         21.85021        26.96708         1.25234
C         23.14610        29.14576         1.34159
C         21.89746        29.83020         1.40383
C         23.13772        31.93517         0.70732
C         21.87607        31.28741         1.24749
C         23.16661        33.44663         0.78304
C         21.98025        34.16719         0.90535
C         23.13678        36.20723         0.14513
C         21.97167        35.56067         0.59718
C         23.09923        37.58260        -0.30445
C         21.86693        38.25039        -0.41324
C         25.68187         5.87274         0.89319
C         24.39546         5.25120         0.40194
C         25.70897         7.37664         0.70309
C         24.48635         8.19586         0.46253
C         25.58719        10.21803         1.65405
C         24.41394         9.61566         0.89601
C         25.65126        11.73097         1.52266
C         24.48163        12.43853         1.56527
C         25.65296        14.61278         1.93658
C         24.46920        13.88875         1.72763
C         25.66145        16.06907         1.83990
C         24.46774        16.75229         1.67506
C         25.72176        18.87987         1.10449
C         24.43775        18.12862         1.12450
C         25.69860        20.37274         0.98815
C         24.40238        21.12433         0.95572
C         25.60444        23.28640         1.09787
C         24.43576        22.59638         1.14851
C         25.61749        24.77678         1.33926
C         24.37692        25.50551         0.82877
C         25.67650        27.68312         1.33967
C         24.38247        26.96697         1.07734
C         25.61585        29.13121         1.08766
C         24.37770        29.81592         1.20292
C         25.66687        31.99565         0.82645
C         24.39488        31.32621         1.33852
C         25.64675        33.41370         0.64477
C         24.41770        34.11763         0.56476
C         25.56540        36.22146        -0.11762
C         24.39706        35.52419         0.21205
C         25.53190        37.56370        -0.60711
C         24.30617        38.22301        -0.69538
C         28.15606         5.92876         0.25337
C         26.96167         5.27792         0.31439
C         28.21580         7.45913         0.46592
C         26.97041         8.05103         1.12956
C         28.05125        10.32474         0.76175
C         26.92860         9.51739         1.41051
C         28.16981        11.76722         1.18995
C         26.94949        12.41023         1.75553
C         28.29845        14.64384         1.97553
C         26.94793        13.89138         2.05926
C         28.12749        16.09984         1.53546
C         26.94446        16.76170         1.66209
C         28.21123        18.99086         1.28683
C         26.94967        18.28559         1.78917
C         28.23236        20.38925         1.18871
C         26.94708        21.10530         1.36593
C         28.15044        23.25149         0.78551
C         26.90722        22.58506         1.26238
C         28.08691        24.73907         0.56650
C         26.87346        25.47571         0.90079
C         28.11473        27.63996         0.44414
C         26.97419        26.91686         1.07722
C         27.93083        29.05034         0.18943
C         26.80685        29.80282         0.70431
C         28.18553        31.85490         0.37558
C         26.81868        31.23754         0.61306
C         28.18478        33.36648         0.20370
C         26.93317        34.15205         0.48187
C         27.82164        35.97409        -1.07485
C         26.93348        35.64986         0.13910
C         27.91218        37.47771        -1.25101
C         26.77133        38.20347        -1.03029
C         30.59556         5.60929        -0.21803
C         29.29005         5.34182        -0.51251
C         30.78864         7.54835         0.84296
C         29.46867         8.14880         1.04590
C         30.59494        10.37701         0.47410
C         29.40723         9.65388         0.92659
C         30.40224        11.78906        -0.03435
C         29.23681        12.50010         0.74155
C         30.11931        14.73320         0.32429
C         29.25507        13.93099         1.00481
C         30.56882        16.04718         0.86078
C         29.25555        16.82404         0.81068
C         30.64070        18.93594         0.91518
C         29.40290        18.28205         1.09233
C         30.65695        20.34599         0.90598
C         29.44830        21.08301         0.99675
C         30.62238        23.25252         0.77428
C         29.45829        22.54696         0.91785
C         30.65277        24.73625         0.77143
C         29.36214        25.50746         0.68953
C         30.57147        27.49468        -0.16555
C         29.30223        26.92196         0.23062
C         30.63648        28.61204        -0.95371
C         28.76936        29.75278        -0.72597
C         29.91305        31.81571        -1.45305
C         28.88524        31.14300        -0.74856
C         30.28909        33.14221        -1.25218
C         29.26916        33.98910        -0.62459
C         30.19021        35.81395        -2.01966
C         29.15888        35.27910        -1.05683
C         30.25516        37.32317        -2.03882
C         29.14631        38.06408        -1.72560
C         32.91199         6.31184        -0.85122
C         31.82348         5.49458        -0.99542
C         33.06652         7.58382        -0.12807
C         31.89753         8.24926         0.47408
C         33.04549        10.42252         0.25143
C         31.82445         9.70947         0.39807
C         33.01737        11.81428         0.02225
C         31.75508        12.48993        -0.14596
C         32.93113        14.66298        -0.56418
C         31.79849        13.81318        -0.56861
C         32.88796        16.07855        -0.30162
C         31.75981        16.74382         0.19685
C         33.22811        18.86394         0.60377
C         31.89174        18.13563         0.70263
C         33.25156        20.35444         0.84896
C         31.94488        21.08504         0.92487
C         33.18208        23.29069         0.40035
C         31.90282        22.53493         0.55897
C         33.14817        24.78233         0.44599
C         31.93314        25.43596         0.50293
C         33.14889        27.60281        -0.02332
C         31.85135        26.90219         0.35000
C         33.09505        28.80111        -0.83262
C         31.80921        29.54454        -0.88608
C         32.91774        31.54550        -1.85561
C         31.84556        30.71606        -1.82354
C         32.77644        32.99052        -2.29852
C         31.52206        33.74661        -1.75642
C         32.77518        35.94077        -1.84196
C         31.51788        35.11487        -1.87852
C         32.63803        37.22627        -2.62188
C         31.46833        37.90645        -2.59239
C         34.22557         8.30604        -0.24246
C         35.55369        10.48298         0.04706
C         34.33926         9.66941         0.41969
C         35.50359        11.85229        -0.17362
C         34.22510        12.51690        -0.23643
C         35.44969        14.63564        -1.02609
C         34.17685        13.89822        -0.72895
C         35.35512        16.12684        -1.15579
C         34.11416        16.87213        -0.67220
C         35.43273        19.03203        -0.60247
C         34.28926        18.27610        -0.23251
C         35.57145        20.40018        -0.25508
C         34.58879        21.07642         0.67431
C         35.64062        23.27528         0.21449
C         34.48463        22.57793         0.43081
C         35.68997        24.75403         0.53078
C         34.39753        25.49362         0.25905
C         35.62586        27.60372        -0.26530
C         34.40985        26.84574        -0.02425
C         35.60209        28.88945        -0.77940
C         34.32246        29.44321        -1.26323
C         35.47061        31.71655        -1.62301
C         34.25029        30.89652        -1.72897
C         35.32120        33.10060        -1.83086
C         34.06434        33.76691        -2.03555
C         34.03218        35.14265        -2.05149
C         36.71068        12.66676        -0.24292
C         37.87049        14.85724        -0.41199
C         36.70552        14.01527        -0.53837
C         37.88320        16.19374        -0.75612
C         36.68027        16.82057        -1.44285
C         37.90411        19.06553        -1.24823
C         36.58312        18.35413        -1.28426
C         37.93772        20.48070        -0.86155
C         36.78569        21.15031        -0.47383
C         38.02305        23.31777        -0.38422
C         36.85827        22.58722        -0.17398
C         38.07973        24.76594        -0.22525
C         36.92340        25.46583         0.03675
C         38.18757        27.68722        -0.35766
C         36.91040        26.94172         0.03363
C         38.05021        29.04221        -0.90689
C         36.81061        29.66967        -1.02636
C         36.69542        31.06037        -1.38869
C         39.10471        16.95267        -0.74384
C         40.40512        19.03020        -1.04040
C         39.16639        18.29566        -1.06809
C         40.45537        20.40958        -1.11629
C         39.19299        21.18109        -1.14958
C         40.53563        23.34230        -0.82631
C         39.22320        22.66892        -0.94540
C         40.55357        24.70684        -0.68024
C         39.33362        25.47708        -0.51458
C         39.36391        26.84939        -0.63023
C         41.68342        21.16325        -1.08669
C         41.71997        22.52924        -0.96689
O         25.32330        18.18815        -0.09782
O         11.15227        20.43518        -2.14314
O         25.43189         7.85708        -0.65182
O         27.01907        12.90685         3.14863
O         27.98450        23.79715        -0.57278
O         32.87024        18.13419         1.82529
O         32.41913        22.78907        -0.79957
O         27.17341         8.53725         2.47521
O         34.78737        13.94336        -2.11670
O         12.30577        16.95189        -2.99957
O          9.39464        21.53498         0.98484
O         20.11390        36.33030         2.02753
O         29.49172         8.98554         2.23556
O         27.94441        33.93731         1.54303
O         14.42833        35.08397         2.14706
O         26.82641        18.58165         3.14998
O         15.84310        12.05214         1.09041
O         30.83576         6.17378         1.05371
O         11.64505        30.73410         2.44285
O         23.03528        23.82446        -0.36757
O         34.38238        29.80970        -2.71310
O         17.64958        27.44691         3.37784
O         29.99874        25.30516         1.99272
O         12.23981        27.23873         2.71151
O         16.82008        30.80350         3.02702
O         30.56632        14.36335        -0.94219
O         25.13696        20.77622        -0.29676
O         37.10669        18.97031        -2.49652
O         12.95226        22.80788         2.45360
O         32.52507        27.71834         1.36424
O         37.72434        27.58324         1.06277
O         24.45060        26.43959        -0.29099
O         26.53521        27.33904         2.44990
O         10.17858        26.18574        -1.05580
O         16.02562        24.90510         3.27009
O         16.55712        15.65818        -1.51556
O         39.03749        22.10439        -2.29617
O         29.48744        28.99272        -1.66942
O         18.66366        20.59598         2.99177
O         26.95464        21.93606         2.58105
O         15.27141        31.33816        -0.17864
O         18.68054        12.03296         2.01132
O         32.69350        20.75422         2.14649
O         15.85266        21.26545        -0.83079
O         34.38308        16.62168        -2.11416
O         14.76830        18.63424         1.38011
O         30.63884        31.10420        -2.42086
O         22.60620         7.92570        -1.05401
O          7.80016        23.01138        -2.62116
H          7.81859        23.98666        -2.73261
O         16.62968        10.91351        -2.31609
H         16.81854        10.06771        -2.77766
O         21.11463        15.27679        -0.47556
H         21.24961        14.51811        -1.08062
O         25.70239         5.66590         2.34002
H         25.77482         4.70383         2.51162
O         28.87727        16.76957        -0.60949
H         28.00933        17.21661        -0.71615
O         12.74774        37.02996         1.74248
H         13.00191        36.42167         2.47498
O         12.09397        20.57057         1.42093
H         12.38286        21.25749         2.09839
O         31.67327        30.20106         0.44959
H         31.83397        29.49492         1.12848
O         23.11431        15.98520         3.46560
H         22.22565        15.60937         3.69055
O         23.15620        31.61715        -0.71429
H         23.93692        32.05475        -1.11513
O         34.48123         9.42684         1.86951
H         35.23033         8.80673         1.99461
O         32.58671        32.99789        -3.74162
H         31.95061        32.28170        -3.95701
O         19.06989        18.05178         3.17301
H         18.97134        18.95856         3.56373
O         35.25500        20.95557         1.97283
H         34.56200        21.07889         2.66229
O         29.68463        35.46104        -3.37714
H         30.04956        34.57859        -3.60724
O         28.96472        31.56496         1.57177
H         28.72245        32.24977         2.23596
O         32.87603        36.36712        -0.42554
H         33.54239        37.08508        -0.37703
O         25.49585        24.91339         2.79351
H         26.26693        24.47957         3.21855
O         11.04123        10.28070        -0.41806
H         10.29764        10.80341        -0.05469
O         20.49634         5.89308         2.01400
H         19.56904         6.12909         2.23587
O         20.87114        33.86681         2.96795
H         20.71259        34.83960         3.04410
O         18.92213        19.34570        -0.30932
H         19.14261        18.49856        -0.75331
O         10.23943        24.50096         2.22221
H         10.90460        23.94380         2.69118
O         25.23757         9.99771         3.05861
H         25.85613         9.30804         3.40893
O         21.11249        25.47202        -0.42420
H         21.58923        24.79806        -0.96663
O         28.23315         7.90803        -0.92056
H         27.30067         7.98067        -1.23617
O         27.14658        35.42744        -2.24551
H         27.78631        35.50829        -2.99659
O         29.89796        11.66949        -1.41651
H         29.85467        12.58951        -1.76920
O          7.64444        14.21739        -2.06478
H          7.61050        14.34615        -1.09486
O         24.32506        31.62091         2.75472
H         25.03248        31.12255         3.21438
O         21.33987        25.03880         3.19675
H         20.60431        24.86383         3.83317
O         28.84753        14.70163         3.29969
H         28.48042        13.93467         3.79808
O         19.43873        31.49252         3.42497
H         18.54862        31.18428         3.72562
O          9.94600        17.71943         0.08146
H          9.89346        18.40976         0.77753
O         36.93399        16.53737        -2.83729
H         36.14508        16.83419        -3.34206
O         20.41529        15.61941         3.10226
H         19.92445        16.36282         3.53320
O         22.88685        18.85442        -0.56393
H         23.74091        19.10924        -0.98931
O         35.82055        24.78037         1.99926
H         36.06191        25.69473         2.26366
O         27.45091        36.38728         1.26772
H         27.97248        35.75096         1.81281
O          9.97327        17.80472        -3.57707
H         10.91436        17.97250        -3.82114
O         27.64670        10.36910        -0.63185
H         28.38020        10.79745        -1.14935
O         18.55450        24.62282         3.79140
H         17.67912        24.53764         4.24016
O         23.21787        27.51494         3.05816
H         22.70393        26.71659         3.32804
O         22.89768        11.42412         3.02255
H         23.69380        10.96293         3.38764
O         30.99900        15.83574         2.21690
H         31.16264        16.70321         2.64488
O         12.55141        10.14847        -3.74574
H         13.06251        10.98305        -3.90146
O         13.50219        21.29498        -1.86256
H         14.41647        21.22300        -2.21652
O         14.28017        12.24462        -3.27799
H         15.21348        11.91497        -3.27716
H          5.27828        18.59492        -2.02850
H          3.98401        20.74063        -1.88907
H          3.87823        23.15019        -1.43014
H          5.04890        25.31389        -0.90129
H          8.70059        14.88771        -3.69498
H          6.58730        16.41856        -2.01978
H          6.28579        27.44945        -0.68307
H          7.45026        29.59604        -0.20884
H         10.32106        10.21642        -2.38812
H          9.10765        12.30841        -2.20792
H          8.66422        31.66693        -0.13134
H          9.91754        33.81052        -0.20372
H         12.60191         5.76101        -1.88662
H         11.55524         7.90408        -2.41798
H         11.06583        35.89142        -0.15439
H         12.38686        37.89952        -0.93353
H         14.63615         4.47364        -1.32599
H         14.56128        38.92478        -1.40757
H         17.01675         4.41050        -0.77423
H         16.98142        39.15136        -0.90062
H         19.39481         4.31236        -0.18471
H         19.39384        39.24503        -0.69394
H         21.91977         4.22509         0.25338
H         21.83694        39.26061        -0.84797
H         24.33764         4.15026         0.42693
H         24.26332        39.25748        -1.06711
H         26.91386         4.23011        -0.02565
H         26.75600        39.28728        -1.22455
H         29.04065         4.78575        -1.42988
H         29.18629        39.16148        -1.82124
H         33.78556         6.05818        -1.47603
H         31.88294         4.69414        -1.75034
H         33.53692        37.68139        -3.06506
H         31.40741        38.92079        -3.01809
H         35.09340         7.89102        -0.77869
H         36.53590         9.99101         0.13329
H         36.21818        33.73770        -1.76338
H         34.98111        35.69003        -1.91417
H         37.66075        12.18734         0.03917
H         38.79671        14.39608        -0.03447
H         38.95830        29.56537        -1.24288
H         37.62281        31.65194        -1.42819
H         40.03372        16.42631        -0.47346
H         41.34171        18.46032        -0.93862
H         41.51181        25.24855        -0.68332
H         40.29385        27.34252        -0.95323
H         42.62953        20.60490        -1.14754
H         42.69469        23.03928        -0.94343
