         276
 CSIRO Nanostructure Databank - Neutral Graphene Oxide Data Set
C        -11.40733         0.48223        -0.32486
C        -10.20334         1.30979        -0.31547
C         -8.93440         0.58872        -0.39811
C         -7.74846         1.35774        -0.06515
C         -6.70793         0.69004         0.51655
C         -4.77738         1.68132         0.28339
C         -3.73089         0.81614         0.23795
C         -2.41050         1.45741        -0.21230
C         -1.26349         0.91523         0.64030
C          0.02614         1.68740         0.70721
C          1.38043         1.04441         1.04983
C          2.63709         1.63262         0.41975
C          3.95261         0.88076         0.67677
C          5.21136         1.55938         0.09025
C          6.38384         0.73968        -0.35773
C          7.45407         1.33244        -1.25457
C          8.80342         0.64048        -0.93747
C          9.77048         1.25888         0.06181
C         11.12765         0.60680        -0.02702
C        -10.20693         2.65319        -0.08900
C         -9.02404         3.57190        -0.36374
C         -7.69990         2.77721        -0.55117
C         -6.36506         3.45472        -0.89013
C         -4.98760         2.83730        -0.63207
C         -3.70193         3.58494        -0.86261
C         -2.57445         3.02391         0.02167
C         -1.25522         3.79191        -0.09658
C          0.04156         3.11381         0.20185
C          1.29288         3.67658        -0.42273
C          2.60768         2.94907        -0.20602
C          3.84621         3.77975        -0.34716
C          5.18693         3.02858        -0.27853
C          6.22259         3.57863        -1.24238
C          7.66274         2.89451        -1.27843
C          8.64638         3.46792        -0.26994
C          9.73151         2.75775         0.13372
C         -8.80124         4.60977         0.76381
C         -8.01782         5.66766         0.64059
C         -6.31410         4.91985        -1.34556
C         -5.05432         5.75344        -1.15931
C         -3.73134         5.06237        -1.12896
C         -2.50880         5.82989        -0.82925
C         -1.22215         5.04965        -0.95075
C          0.02008         5.89692        -0.69499
C          1.32680         5.17779        -0.62601
C          2.51668         5.79975        -1.36227
C          3.79971         5.07998        -1.00980
C          5.07216         5.83494        -1.01966
C          6.36571         5.10009        -1.07108
C          7.53922         5.68206        -0.37042
C          8.57220         4.89534         0.01713
C         -7.44544         6.84268         0.43901
C         -5.98224         7.22887         0.65380
C         -5.20870         7.21104        -0.69881
C         -3.83407         7.92971        -0.59848
C         -2.54126         7.21429        -0.75555
C         -1.32207         7.96037        -0.65857
C         -0.07121         7.32536        -1.24179
C          1.23616         8.07623        -0.92726
C          2.54367         7.33777        -1.06881
C          3.76936         7.97046        -0.46342
C          5.05371         7.22459        -0.44346
C          6.14313         7.55291         0.55922
C          7.51199         7.17574        -0.08767
C         -5.94150         8.61712         1.28032
C         -4.96705         9.51183         1.06172
C         -3.76680         9.19153         0.24737
C         -2.45383         9.67012         0.67459
C         -1.28689         9.16668         0.09328
C         -0.00267         9.75362         0.43040
C          1.19352         9.24732         0.00008
C          2.42441         9.77669         0.55221
C          3.63537         9.15958         0.40766
C          4.86154         9.67029         1.00626
C          6.02568         8.98145         1.03241
C        -11.35622        -0.83765        -0.59296
C        -10.06978        -1.56025        -0.91476
C         -8.85916        -0.77078        -0.48175
C         -7.51756        -1.47348        -0.44046
C         -6.41274        -0.71047         0.31336
C         -5.17203        -1.28296         0.52806
C         -3.89579        -0.52622         1.01777
C         -2.54237        -1.34965         0.92424
C         -1.24536        -0.58401         0.83892
C          0.07685        -1.16977         0.35907
C          1.33798        -0.51536         0.98693
C          2.60515        -1.26720         0.71973
C          3.74162        -0.52436         0.00021
C          4.98166        -1.41352        -0.31992
C          6.32592        -0.76680        -0.43449
C          7.46900        -1.49691        -0.65533
C          8.79704        -0.85019        -0.87745
C         10.08947        -1.63421        -0.58481
C         11.23918        -0.71583        -0.21604
C        -10.06072        -2.99419        -0.45978
C         -8.88567        -3.66516        -0.10542
C         -7.65283        -2.86569         0.14401
C         -6.36210        -3.53964         0.43962
C         -5.09223        -2.73990         0.18715
C         -3.79211        -3.46123         0.08139
C         -2.52505        -2.88493         0.70300
C         -1.22169        -3.47480         0.10373
C          0.06496        -2.71657         0.24601
C          1.21032        -3.42346         0.98802
C          2.57034        -2.78353         0.72767
C          3.76198        -3.60373         0.39340
C          4.91891        -2.93082        -0.29385
C          6.18987        -3.73396        -0.45509
C          7.48907        -2.98829        -0.56669
C          8.72335        -3.67901        -0.07842
C          9.87383        -2.79742         0.37398
C         -8.85757        -5.04710         0.08009
C         -7.63897        -5.86818         0.40162
C         -6.34066        -5.04134         0.55453
C         -5.04674        -5.74621         0.35645
C         -3.79992        -4.97044         0.02069
C         -2.51535        -5.72904         0.06471
C         -1.15428        -5.04130         0.00117
C         -0.06503        -5.73381         0.81018
C          1.22431        -4.98069         0.96728
C          2.49814        -5.72784         0.76520
C          3.65429        -5.09425         0.41409
C          4.95784        -5.78773         0.54879
C          6.19947        -5.24018        -0.13910
C          7.47302        -5.74287         0.61625
C          8.73463        -4.99800         0.22204
C         -7.47139        -6.94971        -0.71112
C         -6.19788        -7.76040        -0.57741
C         -5.05482        -7.15354        -0.13280
C         -3.74972        -7.81885        -0.27331
C         -2.63859        -7.19547         0.54637
C         -1.32957        -7.98940         0.50102
C         -0.04679        -7.24234         0.66160
C          1.24528        -7.90415         0.21789
C          2.45437        -7.22595         0.84855
C          3.72419        -8.02553         0.82349
C          5.01352        -7.26464         0.81190
C          6.29428        -7.95556         0.47594
C          7.46621        -7.25492         0.44626
C         -6.16208        -9.16708        -0.92467
C         -5.01740        -9.90821        -0.88929
C         -3.70636        -9.28228        -0.67459
C         -2.47309       -10.03658        -0.41833
C         -1.27729        -9.39171        -0.04194
C         -0.03668       -10.03522        -0.11106
C          1.22642        -9.44256         0.47888
C          2.53072       -10.03271        -0.01589
C          3.70852        -9.39080         0.22106
C          5.00122        -9.99161        -0.07615
C          6.19214        -9.35536         0.09795
O         -3.20777        -5.48969        -1.20679
O         -1.72722        -1.04727         2.11896
O         -3.90197         9.23197        -1.22783
O          4.83703         8.21388        -1.47289
O         -0.49544        -2.99916        -1.06974
O         -4.30995         5.53583        -2.40359
O         -7.15390         5.36836        -2.10437
O         -0.91638         1.62027         1.84313
O         -3.41609        -8.16344        -1.63846
O          8.15610         3.22124        -2.53061
O          5.88540         5.82343        -2.26140
O          2.04689         8.20325        -2.13746
O          0.79837         5.87854         0.53790
O          3.55381        -3.15425         1.77868
O         -4.20225         2.69352        -1.87974
O          1.82294         2.91742        -1.51382
O         -4.39272        -2.90345        -1.11310
O          6.35967         1.30865         0.98933
O          2.95250        -7.84611         2.05675
O          4.60278        -2.21711        -1.51498
O         -5.55317        -5.49669         1.70867
O         -5.78962         1.47399         1.20775
O         -7.16290        -2.94239         1.51421
O          6.83484        -3.55070        -1.75489
O          4.77096         3.82747         0.84031
O         -0.66591        -7.88854         1.81887
O          0.38127        -5.38894         2.12275
O         -7.16110         2.73754        -1.90207
O         -0.59972         3.99365         1.17809
O          2.14852        -0.96196         2.09184
O          5.11546        -6.31335         1.91313
O          9.17753        -0.09665        -2.11682
O          6.17565        -5.91880        -1.42008
H          6.65063        -5.33795        -2.06324
O          7.70007         7.90485        -1.29536
H          7.07735         7.54430        -1.96863
O         -7.09038        -1.65439        -1.82344
H         -6.91693        -0.77022        -2.21171
O          4.15443         0.71238         2.08396
H          5.11677         0.85420         2.26119
O         -7.88954        -6.57415         1.63156
H         -7.10265        -6.43341         2.21121
O         -2.54006        -3.48865         2.01937
H         -1.95520        -2.94998         2.60387
O         10.47239        -2.28254        -1.82198
H         10.38322        -1.60824        -2.53357
O         -0.66976        -5.36152        -1.32707
H         -1.39539        -5.15617        -1.96150
O         -9.98382        -1.68076        -2.38312
H         -9.05235        -1.93118        -2.58881
O          9.51398        -2.28832         1.66119
H          9.26332        -3.04273         2.23437
O          5.65466         3.31291        -2.52064
H          6.40719         3.43571        -3.15754
O         -1.12799         4.61770        -2.32820
H         -0.97729         5.42825        -2.87626
O         -3.10922        -7.17268         1.90201
H         -2.32110        -7.18029         2.49452
O          1.38858        -7.68953        -1.20334
H          0.62694        -8.09912        -1.66599
O         -3.05465         3.23541         1.35888
H         -2.27914         3.10865         1.96240
O         -0.24936         7.23750        -2.67163
H          0.64182         7.40400        -3.07263
O          7.45242        -5.38178         2.02042
H          6.70887        -5.87121         2.45460
O          0.85273        -3.06142         2.34156
H          1.63834        -3.22206         2.91045
O          7.04741         0.98166        -2.57152
H          7.57647         1.57990        -3.16219
O          2.23700         5.62759        -2.77132
H          3.07511         5.75400        -3.26561
O         -9.43598         4.21281        -1.56617
H         -8.64154         4.51798        -2.07340
O         -2.04839         1.16941        -1.56069
H         -2.75176         1.52901        -2.15268
O          3.20055        -0.14073        -1.28245
H          3.34011        -0.87924        -1.92028
O         -6.02625         7.90999        -1.63175
H         -5.53865         7.98592        -2.47835
O         -4.12405        -0.25378         2.39851
H         -3.25218        -0.07136         2.81832
O          1.58669         1.43547         2.42916
H          2.34194         0.89654         2.77576
O          5.93054         6.68276         1.69748
H          6.55940         6.93063         2.40618
O          0.23569        -0.64632        -0.98446
H         -0.27068        -1.21997        -1.60677
O          9.19668         0.82410         1.34791
H          9.79938         1.11718         2.06292
O         -5.31806         6.27842         1.50304
H         -5.75690         6.27543         2.37894
O         -7.43191        -6.25312        -1.96266
H         -7.11320        -6.86525        -2.65742
O          1.18465        -9.75939         1.88864
H          0.48426        -9.20188         2.30483
H         12.23734        -1.18224        -0.22222
H         12.02266         1.21786         0.17093
H         10.50495         3.25300         0.74532
H          9.40896         5.34076         0.58030
H          8.34460         7.44470         0.61351
H          6.91381         9.43645         1.49862
H          4.81927        10.67733         1.44987
H          2.34490        10.67023         1.19035
H         -0.00168        10.60390         1.12910
H         -2.39259        10.48078         1.41546
H         -5.00182        10.49450         1.55857
H         -6.78208         8.89036         1.93784
H         -8.08031         7.64949         0.02779
H         -9.30106         4.42208         1.73148
H        -11.17164         3.16893         0.03768
H        -12.37278         0.97168        -0.12612
H        -12.28476        -1.42767        -0.62508
H        -10.97186        -3.58687        -0.63883
H         -9.79627        -5.60861        -0.04796
H         -8.36595        -7.63389        -0.68029
H         -7.12071        -9.66488        -1.13581
H         -5.06400       -10.99969        -1.01827
H         -2.43999       -11.10315        -0.68656
H         -0.01641       -11.08529        -0.44297
H          2.53352       -11.04592        -0.44717
H          4.99751       -11.03162        -0.43581
H          7.12682        -9.88815        -0.13224
H          8.40614        -7.77702         0.20829
H          9.66982        -5.42197         0.62791
H         10.81601        -3.40932         0.45038
