         349
 CSIRO Nanostructure Databank - Neutral Graphene Oxide Data Set
C          1.51191         1.88969         0.12532
C          1.46520         3.22154        -0.20276
C          2.74100         1.24867         0.40805
C          2.69613         4.01821        -0.24325
C          1.37793         6.29875        -0.34889
C          1.32624         7.65505        -0.24520
C          2.65496         5.55868        -0.33230
C          2.51565         8.46571        -0.17829
C          1.33246        10.59634        -0.65676
C          1.30421        11.96060        -0.77762
C          2.51364         9.87407        -0.27261
C          2.45829        12.76793        -0.48894
C          1.32282        14.93514        -1.13022
C          1.33560        16.34454        -1.35540
C          2.41153        14.23506        -0.63289
C          2.43308        17.14829        -1.08531
C          2.51724        18.54816        -1.41892
C          3.93994         1.97692         0.51387
C          3.92093         3.42408         0.33193
C          5.16945         1.31711         0.74329
C          5.01056         4.20265         0.68984
C          3.84489         6.29467         0.12652
C          3.79428         7.75691        -0.07702
C          4.99467         5.65575         0.58447
C          5.02854         8.57308         0.32437
C          3.69740        10.65383         0.06291
C          3.60588        12.10156        -0.04343
C          4.85476        10.00516         0.54103
C          4.85144        12.86139         0.21292
C          3.55841        15.04354        -0.16743
C          3.58426        16.55695        -0.38688
C          4.87507        14.36019         0.05685
C          4.86742        17.30364        -0.39461
C          3.65469        19.27956        -1.20714
C          4.89146        18.67183        -0.75013
C          6.34033         2.04817         1.03954
C          6.17719         3.50172         1.29140
C          7.58305         1.44851         1.22040
C          7.40056         4.28260         1.69512
C          6.15058         6.44848         1.01924
C          6.17063         7.83123         0.91264
C          7.35074         5.77886         1.58861
C          7.39219         8.60440         1.08661
C          6.03455        10.76787         1.12415
C          6.08534        12.04192         0.32061
C          7.36880        10.01264         0.97780
C          7.27975        12.45433        -0.12080
C          6.09080        15.18593        -0.21520
C          6.09211        16.61985        -0.18110
C          7.31036        14.61011        -0.52747
C          7.33841        17.32330        -0.26027
C          6.11757        19.38466        -0.73898
C          7.35042        18.74076        -0.48908
C          8.77644         2.18979         1.55257
C          8.70112         3.59862         1.76070
C         10.01143         1.51984         1.58706
C          9.94182         4.38521         1.90232
C          8.66643         6.53045         1.54551
C          8.64421         7.94377         1.15307
C          9.94571         5.79359         1.47029
C          9.85545         8.64241         1.01407
C          8.59546        10.69388         0.82008
C          8.53313        12.19119         0.66264
C          9.83161        10.02727         0.78251
C          9.72828        12.90598         0.10258
C          8.54592        15.20924        -0.21750
C          8.57549        16.61642        -0.14920
C          9.72788        14.38979         0.08660
C          9.84042        17.29152        -0.33582
C          8.61383        19.42158        -0.53970
C          9.84152        18.74174        -0.49736
C         11.25561         2.14090         2.17489
C         11.27805         3.66773         2.00109
C         12.53424         1.46382         1.76576
C         12.44388         4.35421         1.39581
C         11.13353         6.43680         1.19676
C         11.14705         7.91924         1.05797
C         12.38035         5.70584         1.09007
C         12.35314         8.60641         0.48404
C         11.11495        10.82819         0.66958
C         10.93723        12.08599        -0.21329
C         12.27682        10.02794         0.10534
C         12.24914        12.84539        -0.18444
C         11.04649        15.16228        -0.05482
C         11.00851        16.55929        -0.49705
C         12.29067        14.33850        -0.20387
C         12.16542        17.23598        -1.21034
C         11.11425        19.38831        -0.53005
C         12.31485        18.66681        -0.73201
C         13.65534         2.12089         1.36161
C         13.63029         3.56262         1.07690
C         14.90725         1.39908         1.14931
C         14.69007         4.13436         0.43075
C         13.64733         6.45600         0.67613
C         13.35987         7.70137        -0.20528
C         14.65083         5.54682        -0.00576
C         14.62238         8.42421        -0.64129
C         13.39787        10.65707        -0.42741
C         13.45185        12.07473        -0.59334
C         14.58183         9.86675        -0.86533
C         14.68904        12.78897        -0.66195
C         13.48363        14.95906        -0.84451
C         13.46333        16.40446        -1.23138
C         14.72834        14.17337        -0.67843
C         14.81945        17.10560        -1.35758
C         13.57631        19.26279        -0.70087
C         14.81270        18.58276        -0.96841
C         15.99751         1.98728         0.58820
C         15.89379         3.35784        -0.02980
C         17.24359         1.31012         0.25359
C         17.12748         4.27111         0.28994
C         15.85321         6.18776        -0.62823
C         15.84902         7.66620        -0.89936
C         17.20506         5.44802        -0.71963
C         17.17870         8.36504        -1.10239
C         15.88488        10.62074        -1.05892
C         15.97088        12.01143        -0.43994
C         17.18518         9.86904        -1.21354
C         17.24495        12.77500        -0.78465
C         15.98419        14.87844        -0.26821
C         15.93467        16.39524        -0.54915
C         17.22732        14.15477        -0.76381
C         17.22093        17.13003        -0.56056
C         16.01623        19.24775        -0.89889
C         17.33049        18.53534        -1.15768
C         18.37108         2.02323         0.00466
C         18.43887         3.46908         0.47160
C         19.61328         1.33694        -0.51328
C         19.65262         4.22991         0.00989
C         18.43194         6.32486        -0.44962
C         18.44632         7.67882        -0.71067
C         19.67062         5.59666        -0.19681
C         19.70321         8.44362        -0.72827
C         18.48355        10.60092        -1.11034
C         18.49405        12.06172        -0.85672
C         19.72850         9.82544        -0.89387
C         19.72826        12.73116        -0.66314
C         18.50367        14.88354        -0.77611
C         18.49804        16.36264        -0.58796
C         19.74724        14.14785        -0.49401
C         19.63078        17.01524         0.15125
C         18.57000        19.19991        -0.58712
C         19.67995        18.50286        -0.15576
C         20.91468         2.02418        -0.15196
C         20.90054         3.46192         0.19786
C         22.10051         1.37011        -0.28634
C         22.19426         4.20481         0.25713
C         20.93518         6.33185        -0.26676
C         20.93518         7.69593        -0.57274
C         22.18373         5.65861        -0.01740
C         22.23303         8.38326        -0.74355
C         20.97569        10.62633        -1.24642
C         20.98398        12.03126        -0.67568
C         22.27044         9.86411        -1.01333
C         22.18932        12.71320        -0.47656
C         20.93919        14.85032        -0.22691
C         20.93490        16.26550         0.00420
C         22.19553        14.14261        -0.17038
C         22.10856        16.94161         0.30592
C         20.91281        19.13796         0.16957
C         22.07211        18.38846         0.45594
C         23.38810         2.04215        -0.21459
C         23.43920         3.45434        -0.00370
C         24.57724         1.34776        -0.44351
C         24.64684         4.14433        -0.04171
C         23.40826         6.33885        -0.01321
C         23.46434         7.72791        -0.26530
C         24.66928         5.59638         0.38208
C         24.68051         8.45953        -0.19763
C         23.49074        10.61610        -0.64686
C         23.44849        12.00213        -0.52939
C         24.69775         9.87369        -0.39037
C         24.72173        12.81627        -0.53518
C         23.37181        14.83239         0.16272
C         23.36830        16.24528         0.41950
C         24.64092        14.03478         0.39691
C         24.56251        16.94462         0.76762
C         23.25141        19.02918         0.85576
C         24.47374        18.35948         1.13551
C         25.81690         2.03085        -0.52346
C         25.84984         3.44863        -0.32833
C         27.02031         1.34009        -0.84666
C         27.07873         4.16294        -0.49621
C         25.92459         6.32226        -0.02702
C         25.93159         7.73671        -0.02870
C         27.10099         5.61659        -0.35075
C         27.17316         8.43529         0.05260
C         25.91374        10.59149        -0.16171
C         25.96510        12.01716        -0.21340
C         27.09633         9.87388         0.18002
C         27.16095        12.71738        -0.02490
C         25.88527        14.88455         0.28451
C         25.81851        16.23286         0.54073
C         27.20300        14.22864        -0.17559
C         27.12927        16.95102         0.43342
C         25.40777        19.26409         1.72642
C         26.70230        19.18133         2.30856
C         28.21234         2.03337        -1.02097
C         28.22973         3.45172        -0.84418
C         29.42053         1.37065        -1.51372
C         29.43252         4.17842        -1.29170
C         28.29762         6.34811        -0.56485
C         28.39747         7.70854        -0.18159
C         29.45503         5.67853        -1.17931
C         29.70630         8.33376        -0.29895
C         28.18797        10.65052         0.61477
C         28.34844        12.01944         0.35132
C         29.97051         9.58531         0.28385
C         29.67501        12.64214         0.41224
C         28.39415        14.76663         0.63490
C         28.28007        16.18585         1.06342
C         29.71457        14.06339         0.53520
C         29.32464        17.01032         1.72503
C         27.36424        18.03209         2.72218
C         28.82750        17.96994         2.64249
C         30.58865         2.01920        -1.70566
C         30.75998         3.45298        -1.26266
C         31.82039         4.25006        -1.97932
C         30.74053         6.37041        -1.35793
C         30.80491         7.74178        -1.01962
C         31.81745         5.61426        -1.94105
C         31.93350         8.57300        -1.31732
C         30.96044        10.48141        -0.15297
C         30.89085        11.90317         0.19178
C         31.96858         9.91411        -0.98503
C         32.11212        12.61365         0.15835
C         30.96241        14.72119         0.48961
C         30.69160        16.94345         1.45928
C         32.15197        13.98420         0.31134
C         31.58374        17.83277         2.08150
C         29.71956        18.86152         3.26108
C         31.08698        18.77781         2.98331
O         17.86850        10.28911        -2.43695
O         29.13395         4.96641        -2.47175
O         31.20345        16.09307         0.47998
O         12.57331        13.61478         1.02623
O         10.44067        14.97683         1.25953
O         12.19132         8.49374         1.95941
O         16.39677        17.12274         0.64269
O         10.70519         4.29344         3.18973
O         18.74957        15.85639        -1.91584
O         16.49049         7.80365        -2.26686
O          7.90606         6.36597         2.80451
O         21.52901         3.78369         1.52459
O          7.34602        13.37328        -1.16644
O          3.23441        15.97173         0.91676
O         14.78282         5.61142        -1.48052
O         29.17383         9.99438         1.36098
O          4.78399         8.18628        -1.07855
O         13.28779        15.35975        -2.27027
O         27.29641        17.97522        -0.20790
O         27.87636        15.08388         1.97131
O          6.41290         3.82124         2.70700
O         15.03983        10.42210        -2.20155
O         22.47328         8.92499        -2.12949
O          2.89678         4.72439        -1.51908
O          4.83915        13.74848         1.40532
O         24.69219         5.58271         1.85100
H         23.88927         5.10482         2.15276
O         16.83300         4.94020         1.53181
H         17.31816         4.45434         2.24394
O         19.51803         1.29549        -1.94929
H         20.33684         0.89078        -2.30143
O         17.54996        18.45227        -2.58414
H         16.79542        17.94559        -2.97358
O         27.39254        14.56030        -1.56698
H         26.57512        14.26557        -2.03948
O         18.65377         3.32723         1.92506
H         19.61280         3.44038         2.11777
O         17.38500         4.99422        -2.07113
H         17.22663         5.77018        -2.65636
O          5.81866        11.02205         2.52482
H          6.41448        11.76264         2.77825
O         31.14457         3.41191         0.15310
H         31.97294         2.89334         0.22622
O         15.21161        17.02546        -2.74894
H         14.74171        16.24921        -3.13841
O          8.26853        12.76586         1.99054
H          9.13730        12.92020         2.42382
O         16.05386        14.69996         1.18719
H         16.37011        15.56315         1.55967
O         27.37611        20.36499         2.41573
H         26.87486        21.07634         1.97149
O         16.06642        11.77890         0.99743
H         16.00857        12.66550         1.43093
O         11.76167        17.38090        -2.60409
H         11.95913        16.52630        -3.05069
O         19.26929        16.90928         1.56585
H         19.93163        17.41672         2.08108
O         10.75919        11.55275        -1.56658
H         10.40999        12.26029        -2.14797
O         14.32114         6.89605         1.87547
H         13.66936         7.41874         2.40279
O         24.58657        13.50194         1.75215
H         24.78732        14.23046         2.37623
O         15.77060         3.07639        -1.43712
H         15.55418         3.91938        -1.90375
O         20.86646        10.84538        -2.68440
H         21.15876        10.00795        -3.11432
O         12.67603         7.26817        -1.41208
H         13.32358         6.73462        -1.93565
O         24.86340        13.35561        -1.89101
H         24.66828        12.63527        -2.52759
O         11.46511        11.26442         2.00082
H         11.77004        10.46617         2.49135
O         11.10414         1.83826         3.59831
H         10.67954         2.63670         4.00110
H          0.58933         1.29235         0.11163
H          0.52110         3.67853        -0.52843
H          2.76023         0.16157         0.56737
H          0.44640         5.73319        -0.48928
H          0.34411         8.14826        -0.26487
H          0.42565        10.03016        -0.91090
H          0.37433        12.44315        -1.10818
H          0.41596        14.39340        -1.43506
H          0.44755        16.79681        -1.82172
H          1.62694        19.03615        -1.84350
H          5.20504         0.21796         0.71891
H          3.66844        20.34920        -1.46370
H          7.67614         0.36175         1.07654
H          6.11196        20.45520        -0.99422
H         10.01496         0.42954         1.43356
H          8.61344        20.51492        -0.67004
H         12.58292         0.37944         1.94869
H         11.16492        20.47985        -0.39316
H         14.95430         0.35302         1.48999
H         13.64169        20.33191        -0.44221
H         17.23638         0.21677         0.11360
H         16.02358        20.32239        -0.65656
H         19.64216         0.27492        -0.12514
H         18.64514        20.29600        -0.67973
H         22.10182         0.29851        -0.54421
H         20.98937        20.23465         0.11563
H         24.55195         0.25911        -0.60000
H         23.20517        20.11648         1.02065
H         26.98517         0.25392        -1.01829
H         25.06691        20.31329         1.65148
H         29.33752         0.30383        -1.77338
H         26.80074        17.08829         2.74613
H         31.46503         1.47969        -2.09802
H         32.67496         3.71703        -2.42376
H         32.68112         6.15913        -2.35171
H         32.76049         8.15095        -1.90453
H         32.79892        10.53465        -1.34952
H         33.05224        12.06326         0.01947
H         33.10742        14.52327         0.27906
H         32.65501        17.78738         1.84724
H         29.34473        19.61805         3.96201
H         31.78295        19.47569         3.46966
