         210
 CSIRO Nanostructure Databank - Neutral Graphene Oxide Data Set
C         30.48249        31.82618         1.16099
C         30.59953        33.07391         1.18893
C         30.70640        36.18121         1.32549
C         30.75007        37.42984         1.35478
C         30.84366        40.54647         1.30142
C         30.80059        41.79715         1.24655
C         32.77253        28.96898         0.61212
C         31.68600        29.55888         0.83344
C         32.82553        31.66949         0.60988
C         31.57340        30.96649         0.88114
C         32.88087        33.11203         0.61025
C         31.71775        33.89573         0.93060
C         32.95953        36.02194         0.62568
C         31.76446        35.30508         0.97408
C         32.99577        37.45974         0.60805
C         31.85175        38.24586         0.99035
C         33.04545        40.36520         0.48990
C         31.88394        39.65394         0.95655
C         33.04341        41.80135         0.35871
C         31.87080        42.58229         0.74687
C         33.02991        44.47970        -0.00684
C         32.01320        43.96866         0.53005
C         35.44520        27.37202         0.26986
C         35.27478        28.76734         0.23936
C         34.06133        29.49112         0.38296
C         35.27268        31.62046         0.12410
C         34.03701        30.92811         0.37183
C         35.28304        33.05115         0.05367
C         34.09987        33.81071         0.29903
C         35.29564        35.97443        -0.10462
C         34.12600        35.26249         0.27686
C         35.34710        37.39750        -0.14367
C         34.17959        38.15678         0.20195
C         35.38097        40.26101        -0.31145
C         34.19891        39.58703         0.13761
C         35.36869        41.66828        -0.51324
C         34.19830        42.44817        -0.21738
C         35.27394        44.46039        -1.21773
C         34.20615        43.87415        -0.47728
C         35.59786        45.83637        -1.47978
C         37.84247        27.29862        -0.01802
C         36.56767        26.79131         0.13561
C         37.80696        28.75719         0.01055
C         36.52248        29.47979         0.05677
C         37.77376        31.56754        -0.44106
C         36.48319        30.87872        -0.03958
C         37.74029        33.06735        -0.30118
C         36.52463        33.73758        -0.22053
C         37.81883        35.91751        -0.58244
C         36.48033        35.18464        -0.47741
C         37.82659        37.39438        -0.49244
C         36.56594        38.10938        -0.47385
C         37.79028        40.22430        -1.04515
C         36.56327        39.51254        -0.61006
C         37.81200        41.69859        -1.13826
C         36.54706        42.32054        -1.04965
C         38.23426        44.70832        -1.72321
C         36.33143        43.62390        -1.58640
C         38.04725        46.07020        -1.41636
C         36.67283        46.45114        -1.58630
C         40.24706        24.60507         0.69139
C         39.21412        25.16566         0.28319
C         40.33154        27.27666         0.31335
C         39.11545        26.55770        -0.29915
C         40.26117        28.75903         0.56534
C         39.00404        29.45457         0.10853
C         40.25854        31.66966        -0.04009
C         38.96305        30.95527         0.29715
C         40.26375        33.03882        -0.11141
C         38.99708        33.77461        -0.24901
C         40.22606        35.90655         0.22746
C         39.02784        35.15535        -0.28845
C         40.33644        37.29892        -0.41035
C         39.03243        38.05240        -0.46125
C         40.37425        40.19541        -0.64919
C         39.11781        39.45416        -0.88118
C         40.42231        41.64434        -0.96571
C         39.12978        42.40905        -1.32496
C         40.37227        44.56939        -0.61950
C         39.25796        43.90685        -1.18784
C         40.32428        46.00505        -0.41984
C         39.10677        46.72705        -0.75088
C         40.11884        48.70151         0.19479
C         39.17369        48.07301        -0.34319
C         42.74963        24.70911         1.45616
C         41.51018        25.18784         1.00542
C         42.74551        27.41361         0.86872
C         41.50812        26.63467         0.73876
C         42.80391        28.77195         0.45893
C         41.53337        29.42873         0.07134
C         42.80031        31.64365        -0.07236
C         41.52143        30.91614        -0.15591
C         42.77931        33.06026        -0.09951
C         41.52646        33.78072        -0.09719
C         42.75556        35.92031         0.04042
C         41.53026        35.16757         0.02539
C         42.76216        37.34609         0.10209
C         41.45460        38.09903         0.25994
C         42.74845        40.23710        -0.04169
C         41.50293        39.53255        -0.23032
C         42.73749        41.66517        -0.02733
C         41.57430        42.39995        -0.40275
C         42.70029        44.47128         0.29519
C         41.55262        43.80462        -0.23926
C         42.76249        45.98895         0.34303
C         41.42153        46.70085         0.18488
C         42.51163        48.55522         1.22174
C         41.35391        48.08984         0.51019
C         43.77850        25.42500         1.59003
C         45.19246        27.50240         1.19685
C         43.97664        26.78973         1.27725
C         45.24662        28.81959         0.66560
C         44.02753        29.48868         0.35177
C         45.23326        31.65860        -0.03328
C         44.02041        30.92703         0.04322
C         45.23901        33.07408        -0.11357
C         44.00480        33.78987        -0.08512
C         45.22836        35.95030        -0.04924
C         43.99870        35.22146        -0.04173
C         45.22384        37.37251         0.03004
C         43.96782        38.06254         0.09083
C         45.17105        40.22714         0.32676
C         43.95180        39.51604         0.13647
C         45.12451        41.61491         0.55042
C         43.92018        42.34697         0.39604
C         45.08208        44.45358         1.06892
C         43.87096        43.76454         0.59733
C         44.96168        45.81148         1.49009
C         43.59850        46.42162         1.59803
C         43.51833        47.92735         1.57341
C         47.57647        27.44313         1.12025
C         46.49472        26.98259         1.53268
C         47.81674        28.59485         0.32356
C         46.57539        29.49914         0.45623
C         47.69897        31.71755        -0.50042
C         46.54185        30.96107         0.06188
C         47.70404        33.14142        -0.39709
C         46.47602        33.82468        -0.18825
C         47.70023        35.97237        -0.26511
C         46.47060        35.24509        -0.16206
C         47.69293        37.40386        -0.15049
C         46.45868        38.09862         0.03012
C         47.63127        40.26690         0.10215
C         46.45163        39.52919         0.21849
C         47.61195        41.73044         0.32266
C         46.38499        42.27117         1.04510
C         47.55502        44.43765         1.44863
C         46.32569        43.77961         1.09535
C         47.32482        45.77744         1.85435
C         46.19682        46.34095         1.88701
C         50.26628        28.71910        -0.52639
C         48.83987        28.85095        -0.55335
C         50.10038        31.69658        -1.10116
C         48.80000        31.08271        -1.04473
C         50.12603        33.12355        -0.90222
C         48.91965        33.85179        -0.63153
C         50.16228        36.00276        -0.55539
C         48.92504        35.27928        -0.50383
C         50.15395        37.44206        -0.40904
C         48.92413        38.12613        -0.26236
C         50.23858        40.39084        -0.11753
C         48.88438        39.60014        -0.27342
C         50.24811        41.83030         0.37516
C         48.90134        42.50840         0.53778
C         50.05467        44.09783         1.87584
C         48.79294        43.75823         1.35811
C         51.12402        29.50936        -0.97491
C         52.47326        31.71813        -1.20355
C         51.31775        30.90884        -1.16238
C         52.44960        32.97456        -1.10889
C         51.36775        33.85537        -0.91027
C         52.52600        36.09065        -0.58849
C         51.37759        35.25455        -0.69808
C         52.52310        37.31065        -0.33650
C         51.40416        38.18956        -0.27544
C         52.48604        40.28946         0.65123
C         51.43188        39.53849         0.05896
C         52.49759        41.34388         1.32191
C         51.51750        42.41285         1.09719
C         51.13497        43.46931         2.04062
O         37.08011        35.50355        -1.78196
O         38.48766        39.62717        -2.19216
O         48.14247        42.58705        -0.71873
O         40.04234        41.92127        -2.35617
O         37.27114        44.07375        -2.52718
O         51.24811        42.68238        -0.27947
O         41.48975        29.92709        -1.28420
O         46.82041        30.54350         1.46874
O         49.59873        40.21630        -1.40083
O         48.52844        29.80280        -1.55928
O         40.75570        37.12217        -1.78500
H         39.97128        36.91579        -2.33585
O         40.30010        28.94048         2.03570
H         39.69049        28.28407         2.43714
O         43.57412        46.39709        -0.78743
H         43.11364        46.14125        -1.61349
O         39.27497        26.48810        -1.71652
H         40.11050        26.01863        -1.91973
O         37.98396        31.29244        -1.85294
H         37.31700        31.79138        -2.36907
O         42.95684        45.93337         2.77170
H         43.49144        46.18413         3.55318
O         38.75135        31.18564         1.72251
H         39.38066        30.59395         2.20451
O         39.99283        36.04547         1.65566
H         39.98836        35.14676         2.04633
O         46.57200        41.82626         2.43428
H         45.79251        42.11618         2.95382
O         41.17936        38.22731         1.67927
H         41.97407        38.60810         2.10688
