         310
 CSIRO Nanostructure Databank - Neutral Graphene Oxide Data Set
C         30.48368        56.96755         0.53362
C         30.51198        58.24756         1.13739
C         29.31934        58.75848         1.72724
C         30.60025        60.50361         2.78622
C         29.36736        59.88854         2.52221
C         32.90721        52.88837        -0.86540
C         32.88291        54.28609        -0.60834
C         31.67128        54.97831        -0.34050
C         32.87116        57.10710         0.08377
C         31.66422        56.32743         0.10492
C         32.88004        58.43199         0.54076
C         31.74244        58.98565         1.23983
C         33.01721        60.70894         2.67375
C         31.79506        60.09815         2.16132
C         35.44130        48.62093        -1.43411
C         35.36632        50.02745        -1.31801
C         34.17371        50.76331        -1.23242
C         35.33542        52.92359        -0.80702
C         34.12485        52.18835        -1.01447
C         35.33598        54.31567        -0.58161
C         34.11864        55.01281        -0.54815
C         35.42403        57.28127        -0.33952
C         34.10133        56.49173        -0.44305
C         35.36316        58.61913         0.30276
C         34.11830        59.17247         0.42788
C         35.52692        61.07956         2.33347
C         34.18408        60.80571         1.94639
C         37.91975        44.24415        -1.63272
C         37.50987        45.50014        -1.17879
C         36.56943        46.45945        -1.62844
C         37.90197        48.56770        -1.08743
C         36.64954        47.86401        -1.33291
C         37.91950        50.00609        -1.16056
C         36.64911        50.76018        -1.32571
C         37.87221        52.87581        -0.50706
C         36.61904        52.22482        -0.98651
C         37.87777        54.33868        -0.37996
C         36.56825        54.99502         0.00715
C         37.78846        57.08674         0.60004
C         36.71905        56.52967        -0.29249
C         37.78504        58.52217         0.95390
C         36.62846        59.44371         0.57021
C         37.90428        61.19135         1.81909
C         36.63796        60.60116         1.60524
C         40.39349        40.05598        -0.86326
C         40.39767        41.46301        -0.98445
C         39.21800        42.19949        -1.26858
C         40.38855        44.31874        -0.91146
C         39.16105        43.60640        -1.21531
C         40.45555        45.76085        -0.85089
C         39.28514        46.52579        -0.64380
C         40.42114        48.59013        -1.02636
C         39.17634        47.90154        -0.94597
C         40.38330        50.04713        -0.92919
C         39.10502        50.72994        -1.13357
C         40.33929        53.01186        -1.23220
C         39.15227        52.18135        -0.81214
C         40.25532        54.49555        -0.99813
C         39.03459        55.05971        -0.42222
C         40.08364        57.41456        -0.57053
C         38.84235        56.55962        -0.37713
C         40.29529        58.58977         0.32341
C         39.12070        59.19341         1.04273
C         40.33212        61.32307         1.18514
C         39.13443        60.63748         1.34391
C         42.64194        35.88773         0.48133
C         42.71174        37.23796         0.07032
C         41.54266        37.94490        -0.30740
C         42.83611        40.02900        -0.49053
C         41.57484        39.33026        -0.56688
C         42.84824        41.44823        -0.61430
C         41.63460        42.17533        -0.81390
C         42.88171        44.29627        -0.75661
C         41.62410        43.59838        -0.83482
C         42.92395        45.74679        -0.84367
C         41.68220        46.47734        -0.95326
C         42.89946        48.66970        -1.03096
C         41.65688        47.90779        -0.99418
C         42.92203        50.05083        -1.05165
C         41.66600        50.82133        -0.94242
C         42.95591        52.96673        -1.17737
C         41.66411        52.26683        -1.36773
C         43.10168        54.33129        -1.44518
C         41.19160        55.36828        -1.49181
C         42.68667        57.37339        -0.79159
C         41.34589        56.79281        -1.11490
C         42.71509        58.71958        -0.31597
C         41.52201        59.38164         0.13167
C         42.72736        61.45425         0.58419
C         41.52890        60.71389         0.64421
C         44.85577        33.22241         1.88734
C         43.71703        33.85832         1.41685
C         45.04827        35.87693         0.95372
C         43.78171        35.20379         0.94889
C         45.13688        37.20078         0.46886
C         43.98794        37.90991         0.05800
C         45.28979        40.02347        -0.21888
C         44.04743        39.31681        -0.26177
C         45.30801        41.43165        -0.28117
C         44.08198        42.15104        -0.48255
C         45.37194        44.26519        -0.54533
C         44.07536        43.56918        -0.60629
C         45.41351        45.76933        -0.58077
C         44.11367        46.45185        -0.72097
C         45.41625        48.64332        -0.52065
C         44.15701        47.90560        -0.93601
C         45.39547        50.13175        -0.42118
C         44.14906        50.84426        -0.84833
C         45.17971        53.03624        -0.17494
C         44.05084        52.30556        -0.58930
C         45.19115        54.45370        -0.26285
C         44.09519        55.12947        -0.86819
C         45.25965        57.34946        -0.61258
C         43.98575        56.62697        -0.96884
C         45.21248        58.79688        -0.26758
C         43.95804        59.44452        -0.14368
C         45.17091        61.55766         0.26913
C         43.95174        60.83359         0.22423
C         46.09485        33.88345         1.91909
C         47.46820        35.90015         1.52807
C         46.22052        35.20615         1.45443
C         47.62911        37.19538         1.02997
C         46.47399        37.80961         0.32405
C         47.84449        39.97398         0.17989
C         46.55251        39.25615        -0.08352
C         47.80105        41.47818         0.28034
C         46.51585        42.17766         0.03861
C         47.53589        44.31167         0.79794
C         46.50227        43.54903         0.06846
C         47.57729        45.79217         0.71458
C         46.53238        46.46326         0.10503
C         47.45575        48.68857         1.04955
C         46.38482        47.91008         0.33900
C         47.49903        50.16239         0.86896
C         46.40654        50.84327         0.37839
C         47.60702        53.03084         0.55394
C         46.27110        52.33413         0.61107
C         47.61297        54.48295         0.47223
C         46.38950        55.20371         0.11425
C         47.58826        57.36409         0.31029
C         46.41539        56.57205        -0.08670
C         47.70304        58.75462        -0.29385
C         46.40701        59.50317        -0.11578
C         47.65081        61.64946         0.03888
C         46.41843        60.92325         0.07906
C         48.82730        37.92865         1.21311
C         50.10228        40.05454         1.20819
C         48.96220        39.29288         0.86781
C         50.08901        41.47846         1.25042
C         48.91035        42.15421         0.95923
C         49.92759        44.35157         1.70904
C         48.75109        43.56172         1.32824
C         49.66319        45.70840         2.00045
C         48.61940        46.47637         1.44677
C         50.04316        48.76804         1.42557
C         48.67367        47.95116         1.52227
C         49.96037        50.14524         0.91235
C         48.76897        50.85706         0.92159
C         50.07968        52.95699         0.78960
C         48.76330        52.29466         0.70362
C         50.10211        54.46273         0.71968
C         48.81704        55.16275         0.58502
C         50.17719        57.30031         0.44130
C         48.87697        56.62091         0.63620
C         50.17038        58.78581         0.51132
C         48.89845        59.52621         0.23110
C         50.13283        61.63322        -0.17698
C         48.91165        60.99769        -0.03426
C         51.30292        42.22869         1.79700
C         52.43035        44.48067         1.69058
C         51.23133        43.76239         1.74386
C         52.59257        45.91098         1.52613
C         51.51782        46.80906         1.86605
C         52.46919        48.65619         0.62744
C         51.33062        48.04927         1.28935
C         52.41151        49.98093         0.23367
C         51.10804        50.73050         0.11532
C         52.40746        52.90731        -0.01294
C         51.26685        52.22362         0.33411
C         52.46577        54.36515         0.03145
C         51.34096        55.13087         0.28389
C         52.58612        57.29431        -0.10456
C         51.33872        56.58865         0.22109
C         52.60746        58.68335        -0.13179
C         51.49361        59.53402         0.44573
C         52.68116        61.58799        -0.29245
C         51.38497        60.82646        -0.42581
C         53.73036        46.51782         0.98533
C         54.91757        48.56179         0.27437
C         53.73591        47.91266         0.62109
C         54.92296        49.88974        -0.34007
C         53.56703        50.62897        -0.38806
C         54.86683        52.81456        -0.83333
C         53.56159        52.12611        -0.55863
C         54.90314        54.31671        -0.75485
C         53.81333        55.04718         0.01509
C         55.01742        57.16373        -0.48132
C         53.78955        56.52751        -0.30899
C         55.08558        58.61159        -0.71169
C         53.78226        59.41428        -0.59458
C         55.15808        61.48484        -0.31309
C         53.87231        60.88489        -0.36847
C         56.14547        50.71005        -0.41225
C         57.38358        52.80606        -0.67865
C         56.15081        52.06794        -0.68030
C         57.46664        54.20678        -0.72837
C         56.22184        55.00399        -0.80557
C         57.48464        57.10265        -0.44375
C         56.26420        56.44501        -0.48906
C         57.53046        58.54830        -0.34406
C         56.35385        59.30606        -0.47128
C         57.62282        61.37400        -0.16611
C         56.37323        60.73814        -0.34121
C         58.67625        54.91480        -0.57868
C         59.93712        57.01770        -0.31170
C         58.72210        56.33510        -0.46073
C         59.99497        58.43725        -0.17239
C         58.78593        59.20500        -0.19948
C         60.09414        61.26761         0.03633
C         58.82794        60.63266        -0.11218
C         61.22505        59.11699        -0.03046
C         61.26072        60.51345         0.07832
O         54.07957        49.93687        -1.55680
O         50.26498        53.75207         2.00996
O         54.32364        59.03389        -1.89287
O         34.04309        60.55847         0.56523
O         46.73640        38.19281        -1.07636
O         36.40704        54.83580         1.37698
O         45.78128        44.97880        -1.77462
O         42.20245        54.91376        -2.34103
O         49.30687        48.55964         2.66724
O         36.75344        51.76750        -2.39161
O         48.26007        40.78987        -0.95473
O         44.89626        57.13708        -2.02815
O         40.07853        58.36364         1.76532
O         45.27087        50.68562        -1.78816
O         46.23353        48.26414         1.76181
O         55.35814        54.85353        -2.01760
O         45.26607        48.19656        -1.88137
O         48.00088        57.18790         1.68165
O         38.65514        52.27935         0.58023
O         37.70846        56.72672        -1.41274
O         41.01576        50.57330         0.34586
O         47.58989        43.83021         2.19686
O         53.96107        52.45240        -1.92945
O         37.65033        57.46037         1.97359
O         40.47630        57.68896        -1.93230
O         50.59552        46.35742         2.81835
O         38.21450        45.91973        -0.01413
O         49.31261        59.27758         1.60944
O         34.70240        57.19379        -1.59697
O         40.85147        52.57560        -2.53139
O         50.69212        50.55910        -1.28633
H         51.47368        50.72719        -1.85789
O         51.28409        60.32321        -1.79426
H         51.30809        61.08628        -2.40833
O         45.81524        52.45560         2.00604
H         46.52434        52.10869         2.58908
O         52.48406        41.74679         1.15069
H         52.35436        41.80787         0.18222
O         54.27570        54.93373         1.41189
H         53.58526        55.32298         1.99095
O         37.04678        60.01348        -0.69614
H         36.28442        60.49790        -1.07714
O         47.93920        58.57810        -1.71794
H         47.10440        58.27913        -2.14030
O         51.87216        59.89970         1.78671
H         51.03767        59.95612         2.30875
H         29.52888        56.42197         0.49233
H         28.37664        58.21119         1.58577
H         30.63842        61.33839         3.50078
H         28.45450        60.27130         2.99887
H         31.95476        52.34070        -0.92066
H         30.71795        54.43084        -0.38936
H         32.99839        61.05689         3.71756
H         34.50180        48.06049        -1.56049
H         33.21680        50.22029        -1.27659
H         35.71712        61.66976         3.24388
H         37.28957        43.69127        -2.34546
H         35.71415        46.12359        -2.23456
H         37.94273        62.15545         2.35079
H         39.44262        39.51051        -0.95906
H         38.29574        41.64198        -1.49129
H         40.38259        62.39055         1.44866
H         41.66926        35.37361         0.47132
H         40.57985        37.41294        -0.33387
H         42.73390        62.50410         0.91245
H         44.79056        32.18658         2.24903
H         42.75165        33.33252         1.40587
H         45.13981        62.63589         0.48633
H         46.98133        33.36227         2.30797
H         48.31990        35.40112         2.01495
H         47.61416        62.74929         0.02813
H         49.66506        37.43217         1.72657
H         50.98733        39.53327         1.60253
H         50.16863        62.72730        -0.30392
H         51.41042        41.95379         2.88480
H         53.34586        43.87285         1.59707
H         52.68055        62.68118        -0.15933
H         54.62541        45.91609         0.76773
H         55.88090        48.05780         0.44635
H         55.22237        62.57706        -0.19091
H         57.10447        50.20837        -0.20790
H         58.31686        52.23149        -0.57063
H         57.66090        62.46880        -0.06299
H         59.62088        54.35263        -0.51829
H         60.87879        56.44794        -0.30869
H         60.14059        62.36344         0.11146
H         62.16149        58.54134        -0.01052
H         62.22993        61.01969         0.19026
