         661
 CSIRO Nanostructure Databank - Neutral Graphene Oxide Data Set
C          5.89902        31.59092        -0.78209
C          5.87530        32.96836        -0.75426
C          8.23508        27.27752        -0.33029
C          8.32323        28.67869        -0.08831
C          7.15502        29.44438        -0.46897
C          8.24147        31.59357         0.01799
C          7.07059        30.82309        -0.44400
C          8.32249        33.02300        -0.40714
C          7.05863        33.76555        -0.55197
C          8.32498        35.88716        -0.35152
C          7.11388        35.15028        -0.58991
C          8.26257        37.39415        -0.51061
C         10.85828        23.02617         0.13702
C         10.73068        24.41725         0.18928
C          9.49323        25.02019        -0.20201
C         10.95362        27.39936         0.74806
C          9.13017        26.31713         0.18903
C         10.80025        28.80247         0.47508
C          9.54168        29.38855         0.28743
C         10.77526        31.65797         0.40036
C          9.50702        30.87360         0.35061
C         10.74834        33.04600         0.41833
C          9.58862        33.78037        -0.11140
C         10.73701        35.97904         0.26110
C          9.51344        35.24945        -0.02483
C         10.71891        37.41425         0.25474
C          9.51098        38.14590        -0.08194
C         10.60847        40.32049         0.41463
C          9.50283        39.51714        -0.13587
C         10.74558        41.77108         0.13871
C         13.40597        18.91239         1.28678
C         13.39767        20.32456         0.73638
C         12.18645        20.96282         0.60727
C         13.31529        23.07913         0.10566
C         12.10871        22.35688         0.29504
C         13.16236        24.53471        -0.25373
C         12.03553        25.15511         0.60368
C         13.38377        27.37900         0.47281
C         12.05983        26.66329         0.46272
C         13.29850        28.86235         0.21196
C         12.04423        29.54793         0.39829
C         13.29779        31.65241         0.73853
C         12.00839        30.94084         0.44825
C         13.22529        33.13758         0.37174
C         11.95265        33.82615         0.89603
C         13.17872        36.00325         0.52405
C         11.93615        35.29322         0.51315
C         13.16197        37.43288         0.50649
C         11.92078        38.11341         0.50120
C         13.16140        40.31102         0.89910
C         11.87493        39.55803         0.78176
C         13.15046        41.82677         0.75636
C         11.88792        42.48507         0.32672
C         13.24763        44.67595         0.08480
C         11.89044        43.99884         0.11560
C         13.29783        46.05178        -0.12738
C         15.95596        14.62920         0.99175
C         15.96256        16.03488         0.94615
C         14.74549        16.80838         1.14204
C         15.94199        18.95833         0.90616
C         14.70638        18.16822         1.09438
C         15.85353        20.37486         0.48739
C         14.63297        21.03146         0.44978
C         15.75794        23.17391        -0.25000
C         14.56129        22.44725         0.11322
C         15.70682        24.56276        -0.60712
C         14.47192        25.29685        -0.31940
C         15.50362        27.46424        -0.99361
C         14.48030        26.65526        -0.25078
C         15.67420        28.89580        -0.53251
C         14.47146        29.57840        -0.09591
C         15.63993        31.76540        -0.18828
C         14.50001        31.00734         0.08746
C         15.69157        33.16833         0.09702
C         14.51852        33.84339         0.79618
C         15.64160        36.03121         0.43825
C         14.42778        35.32121         0.52819
C         15.63145        37.43955         0.45799
C         14.40718        38.17293         0.54232
C         15.67751        40.34396         0.89929
C         14.40818        39.57399         0.66206
C         15.61517        41.79520         0.46548
C         14.44259        42.51826         0.47824
C         15.70148        44.65633         0.35643
C         14.45358        43.95032         0.28160
C         15.73996        46.08384         0.14607
C         14.53073        46.77742        -0.14251
C         15.81383        48.84184        -0.54416
C         14.59733        48.16236        -0.45855
C         15.82863        50.27496        -1.06319
C         18.40738        10.32734         0.95884
C         18.36108        11.73913         0.91050
C         17.16665        12.45410         0.84985
C         18.34105        14.59812         0.46118
C         17.14365        13.89608         0.77645
C         18.35970        15.99793         0.36366
C         17.16843        16.71027         0.63988
C         18.27365        18.81643        -0.18603
C         17.20553        18.18046         0.64154
C         18.21316        20.29218        -0.40328
C         17.15480        21.12770         0.31645
C         18.14379        23.16635        -0.76822
C         17.00350        22.50481        -0.29817
C         18.13449        24.57474        -1.05406
C         16.87478        25.25458        -0.97802
C         18.08873        27.49523        -1.42824
C         16.80893        26.71472        -1.27265
C         18.08584        28.95028        -1.10658
C         16.83872        29.60462        -0.81634
C         18.09069        31.83122        -0.93486
C         16.74299        31.10852        -1.01252
C         18.11053        33.28724        -0.53293
C         16.85753        33.92513        -0.06880
C         18.14344        35.97691         0.40985
C         16.89044        35.30811         0.26347
C         18.16991        37.41613         0.53794
C         16.90876        38.14528         0.30042
C         18.20498        40.29672         0.67915
C         16.92017        39.63841         0.39240
C         18.23358        41.74603         0.48796
C         16.89837        42.49721         0.30337
C         18.16214        44.61878         0.79565
C         16.90192        43.93969         0.50794
C         18.21616        46.11397         0.52179
C         16.97534        46.77926         0.07041
C         18.33564        48.79941        -0.48298
C         17.01911        48.13653        -0.27686
C         18.33960        50.28098        -0.72678
C         17.08380        51.06554        -0.73731
C         18.36291        53.19332        -0.59131
C         17.13100        52.42563        -0.78593
C         18.41896        54.54200        -0.71628
C         20.94027         6.08653         1.38388
C         20.90087         7.46930         1.15167
C         19.65887         8.20342         1.09716
C         20.91991        10.33571         1.21809
C         19.61302         9.59509         1.04669
C         20.89326        11.77030         0.76527
C         19.63931        12.54946         1.02301
C         20.84790        14.57822         0.15296
C         19.56286        13.78365         0.12638
C         20.78349        15.99083        -0.13136
C         19.59438        16.69777        -0.02775
C         20.71702        18.83856        -0.66189
C         19.56679        18.11493        -0.32577
C         20.67997        20.28362        -0.86529
C         19.47261        20.97267        -0.75366
C         20.65681        23.15833        -1.30212
C         19.35954        22.39269        -1.08315
C         20.61501        24.61811        -1.14975
C         19.37031        25.28481        -1.21417
C         20.60965        27.50044        -1.00645
C         19.42336        26.75924        -1.58024
C         20.57117        28.90151        -0.92421
C         19.31324        29.63882        -0.97020
C         20.55053        31.76313        -0.54693
C         19.34645        31.06452        -0.80064
C         20.56353        33.15852        -0.20988
C         19.38073        33.89383        -0.09218
C         20.60249        35.88930         0.80700
C         19.35243        35.23529         0.39144
C         20.59783        37.39384         0.99876
C         19.33997        38.12084         0.77957
C         20.62951        40.23966         1.10483
C         19.37937        39.56944         0.84248
C         20.61392        41.71869         1.46892
C         19.42406        42.48923         0.91891
C         20.65434        44.59296         1.34374
C         19.42308        43.84933         0.96218
C         20.69047        46.10536         1.01939
C         19.58143        46.65690         0.13520
C         20.82039        48.80715        -0.06671
C         19.61134        48.16650        -0.03252
C         20.92227        50.23950        -0.46532
C         19.64219        51.02031        -0.61153
C         20.87205        53.16071        -0.11441
C         19.54949        52.42827        -0.04706
C         20.91023        54.57738        -0.28507
C         19.61058        55.35407        -0.25720
C         20.90816        57.38884        -1.03971
C         19.71172        56.70720        -0.91409
C         21.03229        58.75031        -1.39120
C         23.44182         3.30857         1.61277
C         22.22789         3.97633         1.63481
C         23.38646         6.07174         1.09981
C         22.16910         5.37752         1.38346
C         23.34254         7.46811         0.83424
C         22.13493         8.15173         0.89149
C         23.35280        10.35372         0.87420
C         22.07625         9.61207         0.52475
C         23.34550        11.80864         0.69901
C         22.10231        12.47503         0.58174
C         23.31394        14.65908         0.20253
C         22.04551        13.91593         0.32084
C         23.29409        16.00448        -0.42267
C         21.97753        16.64787        -0.77781
C         23.17939        18.85891        -0.82913
C         21.99576        18.16079        -0.70949
C         23.19520        20.30569        -0.99776
C         21.92068        21.01111        -1.05909
C         23.11660        23.18036        -1.10157
C         21.91592        22.41789        -1.15766
C         23.07316        24.57227        -0.94207
C         21.84694        25.30277        -0.97779
C         23.05576        27.44762        -0.94664
C         21.85062        26.76281        -0.91482
C         23.04572        28.90645        -1.00969
C         21.79302        29.64701        -0.78721
C         23.04831        31.75036        -0.37605
C         21.80850        31.03673        -0.57552
C         23.10394        33.13361        -0.13986
C         21.83465        33.76974         0.34248
C         23.02055        36.00518         0.22088
C         21.87160        35.27522         0.37849
C         23.07342        37.42028         0.58316
C         21.87123        38.11730         0.88071
C         23.10811        40.19227         1.46922
C         21.83054        39.52503         1.10397
C         23.14361        41.69065         1.47165
C         21.90452        42.41577         0.98698
C         23.13679        44.57550         1.43741
C         21.93428        43.88168         1.35106
C         23.12114        46.02122         1.31015
C         21.99842        46.72731         0.91084
C         23.31143        48.83956         0.62211
C         22.12356        48.01791         0.11668
C         23.33540        50.28028         0.47859
C         22.23609        51.00105        -0.26697
C         23.26650        53.21578         0.37294
C         22.03598        52.45264         0.14320
C         23.34733        54.60375        -0.07374
C         22.14301        55.25147        -0.40465
C         23.37477        57.44302        -0.49515
C         22.23074        56.61327        -1.05226
C         23.48296        58.80029        -1.03813
C         22.29432        59.42464        -1.51148
C         23.60345        61.44129        -1.93632
C         22.37764        60.77075        -1.94922
C         24.64190         3.99246         1.34697
C         25.86186         6.09729         0.86338
C         24.63748         5.37081         1.08598
C         25.87952         7.45398         0.59178
C         24.58051         8.18358         0.33801
C         25.89562        10.37162         0.55807
C         24.64915         9.61564         0.83186
C         25.88680        11.74698         0.50309
C         24.65842        12.52076         0.95515
C         25.79663        14.48768        -0.32467
C         24.61996        13.96552         0.44427
C         25.72489        15.90737        -0.80738
C         24.46069        16.67002        -0.63286
C         25.70849        18.79179        -1.20539
C         24.49789        18.17146        -0.54467
C         25.68149        20.28245        -1.34634
C         24.39365        20.99668        -1.13368
C         25.65574        23.19826        -1.08245
C         24.39435        22.46823        -1.47533
C         25.62310        24.54177        -0.81460
C         24.33544        25.30615        -0.54189
C         25.56476        27.48518        -0.61308
C         24.37094        26.72291        -1.14775
C         25.57149        28.83810        -0.50432
C         24.36130        29.62638        -0.81474
C         25.61815        31.78984        -0.13296
C         24.29600        31.00503        -0.27685
C         25.56020        33.24538        -0.30102
C         24.30955        33.88899        -0.20390
C         25.46766        36.23961        -0.66106
C         24.15901        35.35965        -0.56905
C         25.54385        37.43995         0.27726
C         24.33096        38.08086         0.65923
C         25.66225        40.20648         1.28785
C         24.38461        39.41865         1.30474
C         25.60922        41.69402         1.39905
C         24.43539        42.41089         1.38527
C         25.64965        44.53985         1.40034
C         24.42707        43.86251         1.42667
C         25.67321        46.01269         1.52221
C         24.37945        46.76215         1.46558
C         25.66153        48.90442         1.51789
C         24.40985        48.19944         1.14527
C         25.68788        50.38591         1.29453
C         24.47106        50.99569         0.74958
C         25.83983        53.07419         0.15881
C         24.53478        52.47078         0.62933
C         25.81517        54.58284         0.20950
C         24.62385        55.26470         0.00174
C         25.93004        57.43407        -0.23763
C         24.63421        56.74275        -0.06231
C         25.92326        58.78987        -0.61539
C         24.72975        59.47812        -1.01076
C         24.76515        60.81934        -1.48084
C         27.08674         8.20244         0.47132
C         28.34004        10.32122         0.24405
C         27.11621         9.60341         0.37830
C         28.35778        11.70911         0.11181
C         27.10275        12.45739         0.14451
C         28.30703        14.34736        -0.96625
C         27.09486        13.79350        -0.21258
C         28.29875        15.88118        -1.18688
C         27.00666        16.63824        -1.11109
C         28.18192        18.83261        -0.84535
C         27.00956        18.11724        -0.98219
C         28.11763        20.29875        -0.82066
C         26.96202        20.98697        -1.12527
C         28.21065        23.22010        -0.78768
C         26.94303        22.47191        -1.18291
C         28.05149        24.62009        -0.39451
C         26.84340        25.25845        -0.51521
C         28.04564        27.39131        -0.63092
C         26.76357        26.71360        -0.09357
C         28.09749        28.87839        -0.40376
C         26.82107        29.61410        -0.26420
C         27.99783        31.77050        -0.78273
C         26.84307        31.07828        -0.49356
C         28.00510        33.21525        -0.64534
C         26.78351        33.92716        -0.50476
C         28.01199        36.09045        -0.16509
C         26.81301        35.41145        -0.79703
C         28.00708        37.45697         0.07715
C         26.77719        38.14142         0.32438
C         28.15502        40.24390         0.84333
C         26.81339        39.65019         0.46464
C         28.21530        41.62551         1.35359
C         26.88147        42.39723         1.59231
C         28.14947        44.52116         1.38939
C         26.91635        43.85408         1.43774
C         28.19608        45.97559         1.12350
C         26.91384        46.75125         1.14817
C         28.16804        48.87318         1.43148
C         26.96448        48.20219         1.41208
C         28.21149        50.38103         1.70977
C         26.98068        51.10304         1.17446
C         28.26608        53.22092         1.16757
C         27.02190        52.41853         0.84915
C         28.26243        54.59705         0.55410
C         27.09029        55.28499         0.25559
C         27.10730        56.68989        -0.05241
C         29.57200        12.45761         0.02259
C         30.72672        14.60401        -0.21376
C         29.57384        13.80465        -0.34159
C         30.75935        15.98084        -0.47796
C         29.61759        16.68489        -1.18382
C         30.62219        18.81747        -0.38988
C         29.46719        18.13925        -0.71719
C         30.58593        20.24545        -0.00547
C         29.29803        21.01661        -0.27319
C         30.54928        23.10737         0.14947
C         29.39951        22.47682        -0.31030
C         30.50699        24.56451         0.45423
C         29.23810        25.31048         0.17148
C         30.48615        27.42997        -0.22602
C         29.29976        26.75894        -0.10186
C         30.53378        28.74106        -0.83518
C         29.30498        29.53901        -1.00321
C         30.49625        31.86894        -1.19541
C         29.24938        31.07476        -1.20999
C         30.49034        33.23499        -0.76394
C         29.26100        33.89899        -0.60114
C         30.51323        36.06893        -0.52284
C         29.28952        35.29014        -0.02567
C         30.55485        37.46114         0.12684
C         29.27096        38.26294        -0.20858
C         30.56800        40.31354         0.41928
C         29.33761        39.63298         0.42365
C         30.61895        41.80918         0.48661
C         29.39211        42.43755         1.08741
C         30.66967        44.55185         1.25206
C         29.39646        43.81382         1.29104
C         30.67200        45.99648         1.31616
C         29.45094        46.72520         1.28045
C         30.66700        48.85120         1.27372
C         29.41800        48.13555         1.32910
C         30.67417        50.24962         1.12732
C         29.48708        51.03658         1.20272
C         29.49196        52.38004         0.90560
C         31.91919        16.72592        -0.22776
C         33.08434        18.88797        -0.08595
C         31.90792        18.14176        -0.27053
C         33.09616        20.30092         0.03364
C         31.83428        21.01946         0.10037
C         33.06802        23.13714         0.69008
C         31.79297        22.39305         0.29270
C         33.07546        24.61234         0.35877
C         31.80136        25.38615         0.64999
C         32.99729        27.50989        -0.09179
C         31.77259        26.63224        -0.26903
C         33.01691        28.79255        -0.81657
C         31.76459        29.18653        -1.33487
C         32.99711        31.81293        -1.15180
C         31.72534        31.30763        -1.54084
C         33.01405        33.19953        -0.77857
C         31.78143        33.91644        -0.63714
C         33.04741        36.00836        -0.26564
C         31.81345        35.30485        -0.38398
C         33.08998        37.44085        -0.15911
C         31.82265        38.19374        -0.26454
C         33.11008        40.32820         0.30699
C         31.82325        39.66888         0.00128
C         33.12169        41.66947         0.72469
C         31.85391        42.32955         1.21962
C         33.15182        44.50354         1.25199
C         31.87679        43.84649         1.20382
C         33.22558        45.99840         1.48896
C         31.90219        46.72121         1.35384
C         31.88606        48.10557         1.29327
C         34.30069        21.02472         0.06229
C         35.49422        23.15477         0.00383
C         34.32432        22.43232         0.21438
C         35.51691        24.58683        -0.01725
C         34.24611        25.28907         0.14467
C         35.50338        27.48348        -0.37652
C         34.29414        26.77478         0.06806
C         35.47301        28.86743        -0.69656
C         34.20228        29.58221        -0.92610
C         35.45124        31.77813        -1.39319
C         34.17883        30.99537        -1.12921
C         35.48628        33.16351        -0.74702
C         34.27115        33.87314        -0.58604
C         35.51234        35.98312        -0.19754
C         34.27599        35.28182        -0.31802
C         35.53109        37.40384        -0.02061
C         34.30192        38.14086        -0.02923
C         35.54349        40.27814         0.38740
C         34.32001        39.59091         0.18178
C         35.54826        41.64943         0.65702
C         34.34534        42.36502         0.85269
C         34.32529        43.78345         1.13316
C         36.68764        25.30825        -0.21828
C         37.93020        27.44417        -0.50747
C         36.72000        26.74323        -0.37888
C         37.93673        28.84614        -0.66871
C         36.70874        29.53932        -0.87383
C         38.03141        31.71269        -0.90467
C         36.74484        30.97366        -1.21852
C         37.97431        33.15327        -0.59179
C         36.72712        33.84381        -0.55249
C         37.97050        35.92976        -0.05296
C         36.73222        35.24843        -0.25802
C         37.96118        37.34504         0.14226
C         36.78653        38.07136         0.13846
C         36.87512        39.57034         0.31049
C         39.17445        29.56979        -0.50647
C         40.40881        31.68421        -0.13882
C         39.21545        30.94240        -0.46810
C         40.40162        33.04477        -0.08621
C         39.17859        33.81087        -0.24369
C         39.17407        35.19835        -0.01431
O         18.37731        49.34135        -1.85849
O         25.29124        39.45091         2.46890
O         37.68041        31.32334        -2.29627
O         25.06709        46.49674         2.75789
O         25.35128        37.04110        -1.83309
O         18.15193        32.89340        -1.95899
O          9.26673        33.27539        -1.49067
O         31.73748        30.15749        -2.34143
O         26.62011        26.70590         1.30066
O         27.66043        41.84028         2.69346
O         17.73181        42.09354        -0.85146
O         27.88183        22.97105        -2.20267
O         25.53853        49.82522         2.66517
O         29.56184        24.86899         1.54693
O         27.66462        29.28199         0.91694
O         33.64549        27.48167         1.19873
O         22.35902        47.44838        -1.16809
O         20.43569        45.62068         2.35748
O         16.87045        39.01374        -0.91986
O         20.42253        50.70736        -1.78651
O         24.09913        14.83853         1.49361
O         10.91250        39.93637         1.80411
O         16.98371        18.76944         1.97571
O         17.27026        27.12285        -2.61162
O         20.57779        36.46710         2.15238
O         23.00140        40.94284         2.72967
O         29.05777        30.13247        -2.31652
O         25.48230        14.78523        -1.73631
O         19.85521        22.68537        -2.43650
O         25.57612        19.37358        -2.52798
O         29.63064        20.50144         1.07444
O         23.88728        53.09867         1.75766
O         31.75691        39.10220        -1.39398
O         22.46140        56.43175        -2.42031
O          8.58134        31.35725         1.42340
O         27.47623        46.33719        -0.13326
O          9.85121        26.75621         1.31715
O         27.55938        16.21125        -2.41483
O         24.94031        31.19683         1.01973
O         23.70935        57.34791         0.92347
O         17.72383        19.37816        -1.44284
O         18.03229        45.63788         1.87024
O         13.17693        41.20064         2.08897
O         23.85363        29.46186        -2.16550
O         24.01065         9.86304         2.11995
O         19.27555        52.22159         1.37303
H         19.15573        53.10893         1.77844
O         22.84054        51.20307        -1.58068
H         22.10558        51.19880        -2.24176
O         19.36647        55.58236         1.19031
H         20.06082        56.19644         1.51373
O         11.19393        44.36399        -1.07590
H         10.26453        44.06775        -1.00637
O         30.32853        36.22618        -1.95584
H         31.14835        36.61140        -2.33303
O         19.75381        13.00633         2.40180
H         20.01128        12.22418         2.94250
O         14.83222        27.64020        -2.28850
H         15.54438        27.85524        -2.93772
O         24.40895        22.48917        -2.94807
H         23.61631        22.00795        -3.26815
O         26.58739        40.15913        -0.89395
H         27.16166        39.63626        -1.50184
O         21.77926        33.39544         1.77319
H         22.58261        33.74923         2.21142
O         15.85424        40.40973         2.35304
H         14.99966        40.74087         2.72555
O         24.76451        18.42152         0.88224
H         24.07399        17.96713         1.41124
O         29.15076        38.54856        -1.62673
H         29.25150        37.68800        -2.10806
O         13.12310        33.23153        -1.06323
H         13.85101        32.71609        -1.47376
O         15.74395        50.20524        -2.49996
H         16.59148        49.80801        -2.80974
O          7.11842        37.92252         0.17782
H          7.27835        37.84435         1.14078
O         28.19114        50.56920         3.15729
H         27.29644        50.26918         3.45730
O         17.68301        21.37780         1.65758
H         17.57538        20.53455         2.16625
O         21.79876        16.33302        -2.20955
H         22.54769        16.73311        -2.70238
O         21.16611        10.38000         2.65965
H         22.13786        10.39827         2.81684
O         30.75134        42.26159        -0.89620
H         30.21131        41.67749        -1.47015
O         21.88729        42.31518        -0.46398
H         22.49779        42.98330        -0.84050
O         24.24676        25.45311         0.89804
H         25.09088        25.89661         1.23046
O         25.95008        52.70858        -1.24972
H         26.74235        53.14869        -1.62257
O         23.64837        35.28955        -1.92424
H         24.09345        36.05918        -2.38894
O         27.19581        35.47820        -2.19789
H         26.63096        36.23357        -2.55217
O         31.70434        41.92223         2.60956
H         32.48221        42.24715         3.10911
O         20.49857        41.82041         2.90235
H         21.31436        41.42117         3.29463
O         12.31487        24.84445         1.99657
H         11.54334        25.14614         2.52283
O         13.80242        27.29864         1.90281
H         13.60124        26.37673         2.20062
O         19.40605        13.29420        -1.23399
H         19.47687        14.05906        -1.84342
O         19.89033        46.13914        -1.18932
H         20.76596        46.56118        -1.44979
O         12.66495        24.58983        -1.62620
H         13.40455        24.36505        -2.22895
O         35.34292        32.10423        -2.81837
H         36.26692        32.10855        -3.17014
O         31.84335        26.08942        -1.62111
H         31.74047        26.82636        -2.26086
O         24.42426         8.30651        -1.12052
H         24.53451         7.41243        -1.50903
O         31.86306        25.76391         2.03456
H         30.93047        25.78359         2.36639
O         30.66074        37.37605         1.56108
H         30.12443        36.61127         1.88363
O         24.78670        12.57951         2.40615
H         24.32150        13.40180         2.69261
O         14.76594        33.76754         2.22141
H         14.59984        32.84229         2.51971
O         33.10933        23.09666         2.15671
H         32.65303        23.90780         2.48620
O         37.66134        40.13225        -0.75879
H         37.17992        39.98696        -1.59907
O         28.23016        13.74224        -2.28134
H         27.51936        14.22802        -2.76328
O         16.26997        31.23103        -2.39057
H         16.75196        31.99914        -2.78342
O         24.55817        26.59624        -2.57869
H         24.50899        27.50072        -2.96326
O         28.01318        27.15347        -2.06204
H         28.68291        27.72424        -2.49627
O         11.92383        33.81083         2.34323
H         12.24724        32.93246         2.65046
O         30.05477        16.77200        -2.56714
H         29.23818        16.84624        -3.11456
O         28.24547        53.43157         2.62315
H         28.26538        52.53461         3.04399
O         13.45561        31.50204         2.19998
H         13.49803        30.53803         2.38780
O         19.73674        26.75635        -3.01067
H         18.88310        26.62180        -3.48503
O         34.21872        46.59598         0.64643
H         33.95754        46.44912        -0.28569
O         29.45224        35.06192         1.41973
H         28.70054        34.51135         1.72705
O         21.87836         9.71347        -0.90366
H         22.63559         9.24802        -1.33356
O         12.30201        18.15940         0.77499
H         12.40355        18.08344        -0.19568
H          4.97667        31.04466        -1.03045
H          4.92846        33.49091        -0.95760
H          7.41279        26.93243        -0.97696
H          6.27161        28.87188        -0.79349
H          6.19463        35.72826        -0.76858
H          8.08445        37.60241        -1.60342
H          9.95333        22.41124         0.01119
H          8.83093        24.44028        -0.86410
H          8.61359        40.03733        -0.52380
H          9.84507        42.28715        -0.23482
H         13.23422        18.99562         2.39878
H         11.26089        20.40304         0.80835
H         11.33033        44.43562         1.00179
H         12.36164        46.59637        -0.31927
H         15.02225        14.09695         1.22571
H         13.80446        16.25792         1.29474
H         13.66448        48.70027        -0.68529
H         14.91871        50.81894        -0.70394
H         17.45779         9.77006         0.90490
H         16.20672        11.91514         0.87876
H         16.20011        52.99462        -0.93736
H         17.52619        55.09688        -1.04609
H         20.00543         5.53865         1.57476
H         18.71814         7.63109         1.08468
H         18.78253        57.16371        -1.29219
H         20.12209        59.37410        -1.41016
H         23.47292         2.22811         1.81168
H         21.29845         3.43003         1.85005
H         23.65176        62.48069        -2.29019
H         21.47299        61.28303        -2.30601
H         25.59441         3.44346         1.34587
H         26.81477         5.55732         0.97674
H         26.88280        59.32258        -0.70005
H         25.71985        61.36441        -1.48702
H         28.04252         7.65570         0.48785
H         29.28577         9.76030         0.20370
H         29.20921        55.15917         0.57478
H         28.08125        57.19718        -0.12852
H         30.51966        11.96846         0.29645
H         31.63321        14.13744         0.20467
H         31.63136        50.75996         0.93861
H         30.42781        52.86654         0.58770
H         32.83778        16.20823         0.08878
H         34.04406        18.35117        -0.03868
H         33.58425        46.15570         2.54658
H         32.84166        48.65022         1.27171
H         35.24856        20.49126        -0.11074
H         36.42187        22.61268        -0.23963
H         36.51100        42.17105         0.76028
H         35.28453        44.31997         1.18227
H         37.64230        24.76486        -0.28911
H         38.88562        26.90655        -0.41968
H         38.91951        37.86705         0.27901
H         37.44663        39.78617         1.25364
H         40.08283        28.99223        -0.27762
H         41.33418        31.12378         0.05910
H         41.32367        33.59348         0.15409
H         40.11761        35.71595         0.21197
