         232
 CSIRO Nanostructure Databank - Neutral Graphene Oxide Data Set
C        -11.16463         0.73026        -0.61539
C         -9.94322         1.51226        -0.51596
C         -8.74857         0.83880        -0.12998
C         -7.53887         1.53653        -0.09673
C         -6.29800         0.85541         0.43347
C         -5.03234         1.49958        -0.08117
C         -3.75644         0.73706         0.04625
C         -2.43964         1.46241         0.17021
C         -1.39396         0.59428        -0.54269
C         -0.10997         1.37962        -0.85122
C          1.25195         0.67303        -0.84136
C          2.26186         1.42089         0.03272
C          3.52279         0.69559         0.40840
C          4.83437         1.48454         0.65825
C          6.10223         0.75882         0.51647
C          7.32044         1.48965         0.50729
C          8.55405         0.79193         0.32061
C          9.78934         1.55349         0.22598
C         10.99587         0.82877        -0.13200
C         -9.90341         2.89562        -0.75477
C         -8.69671         3.63556        -0.63764
C         -7.48962         2.93079        -0.34868
C         -6.23845         3.65618        -0.27342
C         -5.00658         2.97718        -0.10617
C         -3.77187         3.65655        -0.11082
C         -2.50288         2.93690        -0.17172
C         -1.31734         3.60119        -0.37267
C         -0.10658         2.88269        -0.84141
C          1.23981         3.62516        -0.97896
C          2.32713         2.91241        -0.15628
C          3.67450         3.58326        -0.16972
C          4.86327         2.92863         0.39327
C          6.08448         3.62375         0.44085
C          7.29812         2.90958         0.64095
C          8.57471         3.60782         1.01802
C          9.79245         2.90682         0.46583
C         -8.65812         5.06613        -0.76387
C         -7.47904         5.79010        -0.60763
C         -6.24047         5.07226        -0.39457
C         -5.01189         5.76807        -0.30839
C         -3.79891         5.07426        -0.19825
C         -2.53019         5.82143        -0.09174
C         -1.24540         5.05439        -0.19651
C          0.01674         5.79115        -0.45551
C          1.18961         5.10303        -0.61302
C          2.48550         5.82980        -0.69380
C          3.77090         5.06114        -0.50396
C          4.99272         5.78518        -0.07969
C          6.11550         5.08012         0.28436
C          7.38327         5.77935         0.53663
C          8.53401         5.09226         0.79206
C         -7.43667         7.23899        -0.69452
C         -6.28085         7.96109        -0.48683
C         -5.02808         7.24308        -0.17443
C         -3.73601         8.00084        -0.18560
C         -2.49951         7.24473        -0.60801
C         -1.21621         7.95810        -0.26530
C         -0.03583         7.24037        -0.25477
C          1.22181         7.92602         0.07538
C          2.50033         7.29550        -0.34197
C          3.74887         7.98578        -0.00283
C          5.04216         7.28125        -0.34414
C          6.24442         7.95573         0.26309
C          7.36395         7.23475         0.55950
C         -6.19192         9.40057        -0.61439
C         -5.01052        10.09753        -0.59003
C         -3.72178         9.46057        -0.43592
C         -2.50672        10.10594        -0.42648
C         -1.23847         9.41167        -0.20663
C         -0.06121        10.12093        -0.03288
C          1.21579         9.45566         0.24203
C          2.52000        10.11989         0.14230
C          3.72359         9.39006         0.17275
C          5.00304        10.07609         0.33428
C          6.17747         9.39575         0.41628
C        -11.20316        -0.61512        -0.38233
C        -10.03646        -1.36496         0.03474
C         -8.81897        -0.57870         0.30926
C         -7.54646        -1.33818         0.56327
C         -6.27014        -0.66050         0.12502
C         -5.06262        -1.33187         0.82704
C         -3.74441        -0.66655         0.49773
C         -2.52523        -1.36353         0.60245
C         -1.28449        -0.72095         0.20548
C         -0.07876        -1.42487         0.19921
C          1.07247        -0.88659        -0.67179
C          2.47957        -1.56415        -0.42655
C          3.64968        -0.73047         0.08921
C          4.85501        -1.37252         0.27019
C          6.10601        -0.64524         0.38327
C          7.33409        -1.32465         0.14990
C          8.54635        -0.60764         0.09511
C          9.78174        -1.30622        -0.25183
C         10.99127        -0.51598        -0.34255
C        -10.00801        -2.73906         0.14930
C         -8.79177        -3.49484         0.39269
C         -7.54877        -2.81344         0.50764
C         -6.33623        -3.52690         0.61389
C         -4.99640        -2.83242         0.49068
C         -3.82104        -3.49621         1.25568
C         -2.53284        -2.78159         0.87905
C         -1.34442        -3.49661         0.76861
C         -0.12118        -2.81455         0.51849
C          1.14704        -3.53933         0.69337
C          2.41986        -2.81058         0.44666
C          3.65700        -3.60591         0.30774
C          4.90006        -2.83709         0.65467
C          6.20801        -3.57074         0.35602
C          7.27706        -2.75541        -0.33967
C          8.59968        -3.48252        -0.44224
C          9.79097        -2.66596        -0.50296
C         -8.77936        -4.90534         0.37102
C         -7.58503        -5.63371         0.54968
C         -6.35761        -4.92608         0.72026
C         -5.13964        -5.66555         1.12849
C         -3.80561        -5.00239         1.07852
C         -2.63432        -5.70440         1.09831
C         -1.36862        -4.99058         0.75582
C         -0.08560        -5.74403         0.63288
C          1.20145        -5.00595         0.60315
C          2.33509        -5.65464         0.15589
C          3.63120        -4.95361         0.09984
C          4.90218        -5.65247        -0.17428
C          6.22512        -5.06066         0.16223
C          7.50683        -5.80319        -0.28109
C          8.63058        -4.83771        -0.63723
C         -7.56277        -7.07407         0.39822
C         -6.40875        -7.81462         0.52502
C         -5.19595        -7.17853         1.07813
C         -3.90600        -7.94930         1.10217
C         -2.60711        -7.19278         1.20153
C         -1.31710        -7.96069         1.00995
C         -0.02192        -7.21489         0.93681
C          1.21128        -7.93318         0.47363
C          2.24759        -7.08199        -0.14093
C          3.04878        -7.65522        -1.08489
C          4.92945        -6.59126        -1.16321
C          6.03758        -7.47108        -1.48149
C          7.29103        -7.00293        -1.20295
C         -6.31834        -9.20757         0.14880
C         -5.13913        -9.89957         0.13432
C         -3.87034        -9.30972         0.50234
C         -2.67542        -9.94038         0.24219
C         -1.36798        -9.34003         0.44676
C         -0.23809        -9.97215        -0.02097
C          1.11779        -9.37683        -0.00823
C          2.21520        -9.90172        -0.87145
C          3.23167        -9.07237        -1.29690
C          4.49904        -9.48305        -1.92562
C          5.68581        -8.80070        -2.01164
O         -3.25281        -7.77141         2.39077
O         -5.41467        -6.46106         2.33529
O          4.01167         4.06408        -1.53406
O          1.80805         2.33640         1.07336
O         -0.48894        -7.71210         2.20998
O          3.77611        -6.80979        -1.92525
O          8.02498        -6.45993         0.92000
H          7.86967        -5.83533         1.66630
O         -3.98520        -3.33546         2.69865
H         -4.50144        -4.09638         3.04419
O          1.62409         3.60331        -2.35890
H          1.56400         2.65921        -2.65844
O          4.81218        -2.72440         2.11043
H          5.17447        -3.56130         2.48505
O         -1.78809         5.52277         1.11481
O          6.76769        -2.66473        -1.71303
H          7.37586        -2.09267        -2.22695
O          1.83066         0.80790        -2.15876
H          1.41333         0.04004        -2.65472
O         -4.37096        -4.26495        -1.28423
H         -3.58873        -4.18606        -1.88433
O         -2.05420         1.42623         1.57261
H         -2.57112         2.09815         2.06579
O          2.91137        -2.06213        -1.71084
H          2.08437        -2.01137        -2.27814
O         -8.26838        -0.76516         1.68899
H         -7.00828         0.55314         2.24940
O         -1.88319         0.13977        -1.82247
H         -1.13713        -0.39878        -2.20558
O          1.89169        -2.82064         1.79529
O         -5.29692        -1.15498         2.23437
H         -4.67931        -1.74289         2.73825
O         -4.41315         0.91702        -1.27370
O          2.50854         6.82882        -1.77157
O         -2.58774         7.16600        -2.06369
H         -1.73795         6.82231        -2.41274
O         -4.62298        -2.86560        -0.94309
H         -5.46634        -0.43478        -1.67804
O          8.68818         3.45314         2.49143
H          8.68300         2.49106         2.68562
O         -6.25861        -0.88486        -1.29014
O          1.21608         8.50776         1.39678
O          5.19706         7.41936        -1.79671
H          4.35008         7.11073        -2.20535
O         -0.35871         2.12652        -2.07448
O          3.97308         1.02311         1.75224
O          0.58155        -1.29612        -1.94179
O          1.63890        -9.00877         1.33890
O         -0.90060        -5.49355        -0.58245
O          6.52002        -4.45339         1.47632
O         -4.33999         7.65022         1.08492
O         -6.28938         1.10544         1.85438
H         11.92643        -1.03368        -0.60300
H         11.93369         1.39700        -0.21738
H         10.73884         3.46690         0.41650
H          9.46428         5.65031         0.98004
H          8.26890         7.75132         0.91616
H          7.11060         9.93680         0.63550
H          4.98837        11.16864         0.45866
H          2.55810        11.21895         0.10988
H         -0.06592        11.21611        -0.14246
H         -2.47065        11.20047        -0.54300
H         -5.03351        11.19087        -0.71512
H         -7.13089         9.95478        -0.76665
H         -8.37061         7.76938        -0.93814
H         -9.59997         5.60189        -0.95791
H        -10.83357         3.42519        -1.01110
H        -12.08425         1.25208        -0.91997
H        -12.14890        -1.16217        -0.51458
H        -10.93118        -3.30973        -0.03739
H         -9.72194        -5.45192         0.21722
H         -8.48703        -7.56962         0.06302
H         -7.24046        -9.70804        -0.18237
H         -5.13232       -10.94330        -0.21389
H         -2.69956       -10.94143        -0.21706
H         -0.35287       -10.95651        -0.50304
H          2.24409       -10.98208        -1.08379
H          4.51485       -10.51992        -2.30187
H          6.52893        -9.36032        -2.45040
H          8.17719        -7.63066        -1.38591
H          9.61322        -5.31263        -0.79689
H         10.74806        -3.16165        -0.72894
