         314
 CSIRO Nanostructure Databank - Neutral Graphene Oxide Data Set
C         30.57795        57.11069         0.79713
C         30.54349        58.45061         1.21618
C         29.39539        59.06110         1.76298
C         30.60021        61.14521         2.22515
C         29.43191        60.38733         2.22569
C         32.95335        52.99342        -0.47567
C         32.96654        54.32472        -0.12194
C         31.76540        55.06045         0.14056
C         33.06507        57.08598         0.69890
C         31.78525        56.41719         0.48817
C         33.08776        58.54938         0.85591
C         31.75616        59.28218         1.08644
C         33.04292        61.27321         1.78518
C         31.81844        60.60977         1.72107
C         35.32971        48.55018        -0.71079
C         35.26402        49.98070        -0.66524
C         34.12625        50.74867        -0.76773
C         35.44514        52.82333        -0.25692
C         34.19925        52.25774        -0.91495
C         35.52319        54.26546         0.05276
C         34.25451        55.04415         0.06786
C         35.52492        57.00621         1.05625
C         34.25203        56.39033         0.68945
C         35.52159        58.43027         1.50383
C         34.30666        59.21494         1.27934
C         35.53137        61.29148         1.61358
C         34.28842        60.59655         1.56605
C         37.62864        44.15432        -0.93270
C         37.27191        45.38730        -0.40225
C         36.36753        46.37731        -0.83568
C         37.78124        48.41752        -0.16979
C         36.49230        47.77099        -0.51600
C         37.82221        49.88833        -0.38271
C         36.56841        50.67089        -0.60292
C         37.88105        52.60504         0.33928
C         36.57040        52.09201        -0.17394
C         38.00813        54.04431         0.89913
C         36.60310        54.74612         1.01017
C         38.01105        56.88591         1.22702
C         36.68262        56.26515         1.02456
C         38.10829        58.33466         1.60026
C         36.85583        59.18967         1.75604
C         37.85182        61.49818         1.05001
C         36.79100        60.67142         1.51269
C         40.13141        39.84405        -0.80719
C         40.10999        41.31902        -1.01356
C         38.88957        42.11010        -0.83156
C         40.16795        44.21048        -0.38223
C         38.88984        43.48430        -0.64291
C         40.21907        45.64629        -0.08524
C         39.11492        46.37869         0.30014
C         40.27362        48.56644         0.31410
C         38.99004        47.80989         0.14369
C         40.25968        50.06288         0.40212
C         38.94444        50.75754         0.15922
C         40.23546        52.85329        -0.67032
C         38.99524        52.09169        -0.54339
C         40.20903        54.30502        -0.40742
C         39.08876        54.89920         0.20595
C         40.29292        57.05274         0.10881
C         39.15918        56.27717         0.49304
C         40.37702        58.47031         0.45893
C         39.40761        58.96845         1.30402
C         40.24684        61.52745         0.19699
C         39.22243        61.14433         1.03323
C         42.70642        35.77131         0.66343
C         42.57402        37.13527         0.49108
C         41.27871        37.68931        -0.11006
C         42.43992        39.95026        -0.06560
C         41.26226        39.18358        -0.41625
C         42.64892        41.31038        -0.65418
C         41.39759        42.09697        -0.95537
C         42.67051        44.24854        -0.74312
C         41.36654        43.53325        -0.58488
C         42.78921        45.65768        -0.28605
C         41.51501        46.38234        -0.01407
C         42.74398        48.52115        -0.21538
C         41.54690        47.86309        -0.02104
C         42.81878        50.00395        -0.13856
C         41.54112        50.80428         0.10189
C         42.66864        52.82390        -0.80178
C         41.51406        52.15461        -0.47973
C         42.57301        54.27482        -1.15343
C         41.37731        55.03103        -0.70054
C         42.67185        57.18117        -0.67894
C         41.43575        56.42334        -0.45670
C         42.63516        58.63487        -0.51384
C         41.52054        59.28172         0.02237
C         42.64554        61.49126        -0.07717
C         41.48971        60.76173         0.08714
C         45.16080        33.22830         1.86667
C         43.98506        33.82170         1.39928
C         44.99691        36.07831         1.57345
C         43.89234        35.22440         1.23016
C         44.88662        37.48881         1.42519
C         43.63014        37.98658         0.94097
C         45.24734        40.49935         0.81331
C         43.34405        39.38694         0.80527
C         45.22592        41.51247        -0.08827
C         43.96749        42.03566        -0.68153
C         45.27512        44.24173        -0.78417
C         43.97236        43.51761        -0.92051
C         45.25412        45.69971        -0.78938
C         44.03093        46.40612        -0.57769
C         45.20896        48.54593        -0.67096
C         43.99676        47.81507        -0.50368
C         45.19560        49.98358        -0.86651
C         43.95251        50.71339        -0.76408
C         45.09707        52.82949        -1.39816
C         43.90833        52.09711        -0.92137
C         45.12576        54.30565        -1.10243
C         43.84451        55.06049        -1.30116
C         45.13017        57.22501        -1.26686
C         43.83641        56.51878        -1.04351
C         45.13800        58.72652        -1.17625
C         43.81727        59.41972        -0.95922
C         45.17659        61.50831        -0.36037
C         43.87449        60.89559        -0.59677
C         46.26863        34.01340         2.14599
C         47.39789        36.16397         2.19777
C         46.22757        35.43497         2.00358
C         47.41842        37.61655         2.12941
C         46.10632        38.34087         1.75821
C         47.62498        40.19510         0.84598
C         46.37350        39.67284         1.11992
C         47.78403        41.42807         0.02727
C         46.50939        42.08042        -0.53484
C         47.76854        44.21213        -0.86629
C         46.46511        43.54313        -0.74968
C         47.76913        45.74718        -0.93188
C         46.46466        46.42733        -0.81666
C         47.69422        48.55801        -0.63988
C         46.45342        47.84474        -0.72890
C         47.63943        50.01801        -0.60908
C         46.39257        50.67140        -1.02896
C         47.71689        52.84048        -1.45488
C         46.41503        52.07625        -1.44116
C         47.70206        54.36470        -1.31417
C         46.41143        55.04755        -0.99717
C         47.59614        57.21806        -0.90465
C         46.41948        56.52966        -1.05124
C         47.60416        58.67199        -0.80146
C         46.40489        59.39665        -0.82006
C         47.61473        61.44405        -0.18208
C         46.38652        60.80030        -0.46649
C         48.70826        38.29850         1.94226
C         50.02453        40.31654         1.36177
C         48.81475        39.56795         1.38253
C         50.15255        41.62816         0.84105
C         49.03584        42.22853         0.12246
C         50.17500        44.35228        -0.51717
C         49.00744        43.54263        -0.39799
C         50.21542        45.77453        -0.39766
C         48.99370        46.48129        -0.55117
C         50.18274        48.63859        -0.38641
C         48.94338        47.90260        -0.49085
C         50.19965        50.04208        -0.54734
C         48.93789        50.78982        -0.62129
C         50.16308        52.90271        -1.04511
C         48.97142        52.18458        -1.08718
C         50.14361        54.35707        -1.01959
C         48.94250        55.04355        -0.96252
C         50.10705        57.23703        -1.15027
C         48.89908        56.50107        -0.55766
C         50.10090        58.67562        -0.67704
C         48.85573        59.35007        -0.56270
C         50.06949        61.42484        -0.02630
C         48.84359        60.75306        -0.25732
C         51.34323        42.33226         1.21590
C         52.63664        44.51647         1.05291
C         51.81224        43.49300         0.58390
C         52.61225        45.85244         0.51099
C         51.44111        46.47996        -0.06997
C         52.59662        48.65896         0.07746
C         51.42303        47.91464        -0.14864
C         52.58373        50.16427         0.11993
C         51.39612        50.80893        -0.53297
C         52.63968        52.94626        -0.78943
C         51.40771        52.19943        -0.77578
C         52.63195        54.34280        -0.87179
C         51.40001        55.08741        -0.88266
C         52.64789        57.20970        -0.82221
C         51.40686        56.48468        -0.88710
C         52.59014        58.69724        -0.77945
C         51.30147        59.36923        -0.51328
C         52.51919        61.42807         0.18757
C         51.29631        60.75854        -0.14601
C         53.75359        46.64189         0.77134
C         55.00032        48.78061         0.69095
C         53.80370        48.02072         0.48877
C         55.09611        50.13191         0.31382
C         53.90249        50.75111        -0.31958
C         55.17315        52.94389        -0.45321
C         53.92803        52.20752        -0.71534
C         55.24537        54.34711        -0.81921
C         53.88475        55.10195        -1.04648
C         55.19103        57.32382        -0.94834
C         53.87070        56.55744        -0.85966
C         55.10431        58.67750        -0.25812
C         53.86658        59.44978        -0.46467
C         54.92206        61.37117         0.70130
C         53.75212        60.78992         0.15049
C         56.24056        50.91095         0.50336
C         57.45185        53.05026         0.43845
C         56.28241        52.30233         0.16560
C         57.56025        54.44088         0.16514
C         56.41049        55.15677        -0.40714
C         57.55406        57.26034         0.02172
C         56.39346        56.53137        -0.47094
C         57.43247        58.53098         0.51778
C         56.17760        59.25667         0.37891
C         57.29077        61.29457         1.29160
C         56.11846        60.65284         0.81806
C         58.73789        55.12334         0.42199
C         60.01774        57.28439         0.58767
C         58.88202        56.54256        -0.05263
C         59.88307        58.51801         1.14694
C         58.51320        59.10881         1.39896
C         59.67915        61.28488         1.84518
C         58.50710        60.62010         1.46092
C         61.02507        59.26511         1.61147
C         60.91057        60.59535         1.95937
O         47.79009        53.71300        -2.61891
O         37.44814        50.33085        -1.73149
O         48.15986        50.64156         0.64904
O         40.81615        41.76511        -2.25409
O         51.36136        43.68686        -0.75148
O         39.59491        60.15906         1.98193
O         45.73409        54.54026         0.22374
O         53.35609        59.35982        -1.85741
O         40.31879        49.27629         1.61562
O         47.35168        41.26618        -1.38399
O         54.03171        51.09245        -1.71269
O         43.09117        54.62783        -2.47833
O         38.27327        57.28749         2.62105
O         42.34405        45.82515         1.10389
O         32.37018        59.23313        -0.23388
O         47.93286        44.92327        -2.13665
O         35.18424        55.07162        -1.11593
O         42.51514        50.61441         1.16510
O         46.52420        38.26783         3.14100
O         38.51270        53.93559         2.25040
O         37.98500        45.72602         0.76673
O         45.15596        58.05396        -2.48422
O         39.40064        52.41906        -1.86827
O         36.06280        58.69989         2.85436
O         43.22676        44.00150        -2.08011
O         54.72164        54.64483        -2.15078
O         44.10407        40.26493         1.57241
O         45.62622        52.35290        -2.65518
O         43.60095        60.40974        -1.99497
O         43.54303        41.23508        -1.83308
O         58.14323        58.67676         2.75847
H         58.80361        59.06380         3.37196
O         49.91762        57.24802        -2.58633
H         50.65969        57.74010        -2.99568
O         40.18185        37.36190         0.75960
H         40.32842        37.80228         1.62162
O         52.48098        50.53419         1.54404
H         51.64016        50.16329         1.88775
O         38.34743        51.53244         1.33064
H         38.75141        52.99164         2.41178
O         49.04008        56.56867         0.88712
H         48.28279        56.09760         1.29434
O         34.33619        52.54704        -2.34547
H         34.58306        53.49914        -2.41505
O         55.41583        57.60809        -2.36148
H         54.70359        58.23717        -2.63517
O         36.06460        54.37045         2.29970
H         36.82730        54.38344         2.92892
O         59.22710        56.45413        -1.48101
H         58.43330        56.12613        -1.95684
H         29.63793        56.53780         0.78731
H         28.46620        58.48001         1.84929
H         30.59450        62.16251         2.64178
H         28.51310        60.82660         2.63924
H         31.98287        52.49134        -0.61424
H         30.79878        54.54454         0.04069
H         33.07516        62.30760         2.15824
H         34.39780        48.00887        -0.93664
H         33.14028        50.26507        -0.84754
H         35.49801        62.39100         1.59036
H         36.97839        43.68118        -1.68403
H         35.53795        46.08638        -1.49820
H         37.56793        62.47249         0.62338
H         39.19096        39.28850        -0.94076
H         37.92223        41.59800        -0.95313
H         40.12844        62.40160        -0.45979
H         41.89308        35.09404         0.36553
H         41.08724        37.13363        -1.06645
H         42.62373        62.57946         0.08245
H         45.21300        32.13781         1.98979
H         43.11775        33.19812         1.14036
H         45.20040        62.54008         0.02136
H         47.20531        33.54861         2.48516
H         48.34734        35.63046         2.35523
H         47.61249        62.51333         0.07494
H         49.62011        37.76020         2.24166
H         50.90042        39.88190         1.86599
H         50.05582        62.49233         0.23785
H         51.88763        41.96189         2.09722
H         53.29820        44.32995         1.91186
H         52.45763        62.44949         0.59203
H         54.64229        46.15447         1.19886
H         55.88226        48.27531         1.11225
H         54.87552        62.40471         1.07576
H         57.13061        50.46099         0.96738
H         58.32079        52.53385         0.87199
H         57.24912        62.37737         1.48881
H         59.60431        54.58863         0.83859
H         61.02221        56.84751         0.47002
H         59.65217        62.37143         2.01440
H         62.01114        58.77769         1.60865
H         61.80424        61.15414         2.27104
