         661
 CSIRO Nanostructure Databank - Neutral Graphene Oxide Data Set
C          6.17323        31.80711        -0.38657
C          6.14605        33.14114        -0.29811
C          8.51361        27.33526         0.04155
C          8.01761        28.62420         0.41904
C          7.30901        29.61065        -0.20442
C          8.35673        31.68906         0.84702
C          7.05115        30.94003         0.49840
C          8.35521        33.10998         0.77535
C          7.01139        33.82754         0.74228
C          8.26911        36.02258         0.42699
C          7.09094        35.32373         0.56689
C          8.34873        37.44706         0.30393
C         11.02473        23.18073         0.48403
C         10.93051        24.55607         0.74258
C          9.81223        25.31551         0.34251
C         10.85494        27.42112         1.10509
C          9.68729        26.71803         0.55152
C         10.85160        28.83796         1.50631
C          9.63211        29.65063         1.45194
C         10.86584        31.70426         1.02873
C          9.59654        31.00032         1.09259
C         10.82541        33.16848         0.99997
C          9.53786        33.84141         0.79300
C         10.82041        36.00149         0.18494
C          9.53187        35.24903         0.35883
C         10.81510        37.46988         0.18332
C          9.56798        38.16196         0.21058
C         10.77297        40.32824         0.09843
C          9.58468        39.59582         0.10722
C         10.78496        41.73675         0.01012
C         13.37154        18.77804         0.22261
C         13.36446        20.18496         0.70321
C         12.21443        21.05295         0.39469
C         13.40730        23.00195         1.42542
C         12.19304        22.39395         0.71834
C         13.43038        24.53724         1.36492
C         12.10647        25.29713         1.24251
C         13.36419        27.45389         1.17633
C         12.09927        26.77156         1.13016
C         13.38779        28.86041         1.10003
C         12.17084        29.61470         1.40901
C         13.32172        31.74193         0.73707
C         12.09880        31.05994         1.10721
C         13.31160        33.10346         0.43445
C         12.14755        33.91523         0.77493
C         13.14439        35.98388        -0.53738
C         12.17898        35.41790         0.53782
C         13.24229        37.47484        -0.23658
C         12.07398        38.15086         0.07413
C         13.29338        40.36415        -0.12768
C         12.08570        39.62529         0.39256
C         13.25800        41.75599        -0.13446
C         11.99505        42.48035        -0.01785
C         13.22695        44.63448        -0.05287
C         12.00988        43.88324        -0.03309
C         13.22106        46.02871        -0.09245
C         15.68889        14.40498        -0.63499
C         15.34791        15.70629        -0.13525
C         14.44357        16.68116        -0.50609
C         15.82364        18.86846        -0.03740
C         14.51284        18.06318         0.01907
C         15.96862        20.09302         0.91211
C         14.67332        20.86976         1.06181
C         15.80376        23.03453         0.55413
C         14.69647        22.35071         0.96380
C         15.68641        24.49422         0.16004
C         14.61308        25.26531         0.91483
C         15.76172        27.39172         0.54903
C         14.59671        26.68635         0.89698
C         15.86957        28.84261         0.95876
C         14.57753        29.60375         0.84139
C         15.78272        31.70874         0.31936
C         14.55911        30.98340         0.63868
C         15.78069        33.05307         0.01580
C         14.49756        33.75870        -0.15910
C         15.76365        35.98452        -0.65069
C         14.46882        35.20544        -0.58628
C         15.77916        37.44533        -0.38837
C         14.48560        38.18390        -0.69746
C         15.73096        40.30609        -0.41385
C         14.53607        39.64853        -0.33924
C         15.76977        41.80332        -0.56467
C         14.46940        42.50567        -0.25332
C         15.74512        44.58132        -0.11171
C         14.47992        43.88641        -0.11116
C         15.76709        46.05827        -0.00250
C         14.44768        46.82708        -0.01433
C         15.76344        48.94968        -0.27104
C         14.53270        48.24702        -0.34055
C         15.81357        50.36890        -0.28363
C         18.24121        10.25522        -0.19954
C         18.22883        11.64354        -0.40420
C         17.02612        12.37503        -0.57015
C         18.23962        14.46029         0.07844
C         16.94033        13.78002        -0.42488
C         18.32566        15.96310        -0.13970
C         17.23953        16.72966         0.27290
C         18.30171        18.79488        -0.26347
C         17.12151        18.09935         0.03197
C         18.36403        20.23201         0.07994
C         17.12257        20.95554         0.40858
C         18.27485        23.09804        -0.04326
C         17.07361        22.33134         0.29832
C         18.21765        24.54670        -0.12525
C         17.00342        25.22057         0.07740
C         18.22824        27.38175        -0.01430
C         16.88565        26.70286        -0.19449
C         18.28942        28.83832         0.25116
C         17.03695        29.59250         0.39149
C         18.28388        31.69772         0.16900
C         17.03061        30.95110         0.23327
C         18.24838        33.07043         0.07896
C         17.03988        33.68489        -0.56838
C         18.27019        35.98477        -0.16664
C         17.06267        35.22406        -0.58517
C         18.25004        37.40216        -0.18653
C         16.98307        38.10600        -0.33997
C         18.25170        40.30163        -0.07066
C         17.04074        39.58419        -0.65977
C         18.20242        41.66228         0.13278
C         16.89758        42.41605         0.25789
C         18.19665        44.62824         0.05885
C         16.95295        43.91043        -0.01037
C         18.25351        46.00565        -0.09555
C         17.00463        46.74979        -0.51985
C         18.23058        48.90043        -0.10081
C         17.00681        48.22682        -0.21437
C         18.26527        50.33397        -0.10298
C         17.04162        51.06925        -0.21689
C         18.30559        53.19843        -0.25967
C         17.09051        52.49622        -0.25966
C         18.35400        54.62461        -0.28911
C         20.67555         6.12575         0.97862
C         20.65366         7.51725         0.75311
C         19.44248         8.21026         0.42590
C         20.74753        10.14423        -0.46182
C         19.44504         9.52939        -0.01868
C         20.75283        11.65123        -0.53237
C         19.49571        12.37076        -0.49271
C         20.65803        14.49445        -0.87460
C         19.46500        13.75106        -0.47320
C         20.70519        15.95697        -0.78977
C         19.46596        16.66647        -0.60532
C         20.65141        18.81979        -1.11531
C         19.46005        18.08678        -0.62861
C         20.56510        20.34467        -1.24603
C         19.58923        20.98784        -0.28340
C         20.71288        23.16263        -0.55934
C         19.49937        22.46131        -0.31949
C         20.68384        24.59237        -0.50060
C         19.45394        25.25327        -0.38142
C         20.71359        27.45357        -0.43124
C         19.40958        26.73156        -0.70698
C         20.75274        28.77606        -0.10377
C         19.49957        29.57694        -0.26349
C         20.73583        31.63739         0.38253
C         19.54687        30.98570         0.25182
C         20.73649        33.09409         0.59733
C         19.42224        33.85644         0.42759
C         20.68142        36.00716         0.28881
C         19.45841        35.30613         0.16614
C         20.68967        37.41301         0.12916
C         19.47876        38.12122        -0.02655
C         20.70781        40.24499         0.37319
C         19.49785        39.57660         0.07058
C         20.71055        41.66552         0.75569
C         19.37894        42.39994         0.61642
C         20.73051        44.57064         0.41645
C         19.44518        43.84914         0.24178
C         20.72555        46.04946         0.33267
C         19.47985        46.75111         0.04033
C         20.73229        48.87241         0.37362
C         19.45808        48.14300         0.02118
C         20.74288        50.31997        -0.03422
C         19.52061        51.03708        -0.10536
C         20.79184        53.13426        -0.27393
C         19.54585        52.45560        -0.22371
C         20.82328        54.59025        -0.31588
C         19.56597        55.33683        -0.29108
C         20.80373        57.49248        -0.27814
C         19.59429        56.75623        -0.30994
C         20.87499        58.88761        -0.36792
C         23.22021         3.37359         1.24908
C         21.98393         4.01780         1.08792
C         23.07672         6.15256         1.62864
C         21.87215         5.41467         1.22606
C         23.07264         7.69658         1.38784
C         21.87420         8.27714         0.78530
C         23.18863        10.24895         0.20327
C         21.95383         9.56272         0.23274
C         23.23496        11.58715        -0.41011
C         21.95906        12.31376        -0.59915
C         23.24586        14.53850        -0.69578
C         22.01443        13.74288        -0.94158
C         23.15338        15.92008        -0.55157
C         21.92174        16.62240        -0.78215
C         23.25266        18.81177        -0.94140
C         21.97124        18.07209        -1.07744
C         23.24192        20.27432        -1.19153
C         21.92730        21.03881        -1.24021
C         23.17142        23.14007        -0.88759
C         21.94827        22.47601        -0.86874
C         23.25118        24.61139        -0.56447
C         21.92618        25.33021        -0.64024
C         23.18746        27.44841        -0.84617
C         21.95036        26.70601        -0.60459
C         23.04803        28.96077        -0.93403
C         22.10082        29.40518         0.21502
C         23.06213        31.74454        -0.43797
C         22.08428        30.95710         0.46842
C         23.17706        33.16777         0.07343
C         21.97073        33.85875         0.37598
C         23.16890        35.96073         0.45365
C         21.93157        35.26155         0.39949
C         23.18751        37.38616         0.50302
C         22.00372        38.13584        -0.06082
C         23.19943        40.30360         0.41525
C         21.98203        39.60291         0.30885
C         23.20867        41.77568         0.60734
C         21.98014        42.41963         0.76986
C         23.15391        44.67941         1.02726
C         21.86848        43.89253         1.15835
C         23.16035        46.00757         0.71098
C         21.93087        46.70341         0.36232
C         23.22892        48.86939        -0.01713
C         21.93477        48.11888        -0.17052
C         23.24225        50.23060        -0.13203
C         21.97502        50.97890        -0.15668
C         23.29648        53.06711        -0.30610
C         21.99136        52.38920        -0.25617
C         23.31824        54.55194        -0.39331
C         22.02031        55.26797        -0.36805
C         23.37310        57.45335        -0.31487
C         22.06119        56.72610        -0.17105
C         23.35035        58.89774        -0.58006
C         22.11635        59.59722        -0.52053
C         23.35025        61.65604        -0.95871
C         22.14491        61.00340        -0.71584
C         24.39855         4.07788         1.49613
C         25.55437         6.25551         1.77657
C         24.38729         5.48716         1.64399
C         25.57355         7.66400         1.57106
C         24.36517         8.34923         1.20944
C         25.63950        10.40011         0.71397
C         24.39562         9.64875         0.66770
C         25.66236        11.73614         0.37512
C         24.51782        12.37895        -0.29008
C         25.73219        14.49371        -0.62064
C         24.51278        13.85525        -0.50819
C         25.94369        15.81711        -1.26297
C         24.21625        16.79504         0.04978
C         25.71668        18.87793        -0.28138
C         24.37475        18.17927        -0.48842
C         25.68589        20.34510        -0.68799
C         24.47900        21.02655        -0.89401
C         25.65957        23.18615        -0.94880
C         24.43150        22.44986        -0.96057
C         25.67830        24.62224        -1.13074
C         24.34331        25.29643        -1.39328
C         25.56946        27.53698        -1.55986
C         24.34079        26.80299        -1.17589
C         25.57525        29.06724        -1.53704
C         24.36024        29.68844        -0.89824
C         25.63840        31.73364        -0.49986
C         24.38299        31.03006        -0.61711
C         25.64879        33.24264        -0.42970
C         24.37849        33.85817         0.08728
C         25.62442        35.93519         0.63197
C         24.38940        35.24159         0.42027
C         25.62044        37.32214         0.88669
C         24.37475        38.05400         0.75950
C         25.69330        40.00196         0.49454
C         24.41194        39.50170         0.57636
C         25.71859        42.08969         0.62126
C         24.42722        42.55524         0.83674
C         25.66053        44.71360         1.22275
C         24.37962        43.94027         1.48752
C         25.67490        46.07578         0.95912
C         24.39055        46.87091         0.92953
C         25.73825        48.82565         0.07963
C         24.47339        48.02370        -0.08480
C         25.75289        50.19617        -0.23391
C         24.50485        50.93628        -0.36887
C         25.73857        52.97941        -1.07659
C         24.50218        52.28506        -0.65194
C         25.77404        54.48860        -1.39747
C         24.47647        55.23814        -1.05469
C         25.84102        57.41323        -0.91962
C         24.52894        56.71715        -0.91727
C         25.82048        58.79660        -0.89721
C         24.57842        59.55062        -0.86262
C         24.55798        60.95074        -1.03384
C         26.79273         8.39099         1.57514
C         28.05898        10.48334         1.29651
C         26.85183         9.75632         1.22084
C         28.12674        11.88603         1.03149
C         26.85077        12.55557         0.66281
C         28.26018        14.56319        -0.13929
C         26.89837        13.94422         0.10437
C         28.18413        16.06975        -0.29635
C         27.04854        16.67748        -0.73694
C         28.20904        18.92905        -0.58769
C         26.95366        18.17630        -1.00822
C         28.17698        20.34569        -0.65003
C         26.90766        21.06387        -0.75620
C         28.13334        23.20845        -1.13554
C         26.87801        22.47255        -0.88469
C         28.14841        24.69062        -1.12030
C         26.86787        25.33616        -1.20938
C         28.14176        27.54283        -1.31355
C         26.87372        26.79024        -1.49695
C         28.07961        28.95874        -1.13944
C         26.87057        29.65965        -1.01127
C         28.07857        31.61544         0.03739
C         26.83526        31.03002        -0.58692
C         28.06601        33.11548         0.23145
C         26.87940        33.83846         0.21660
C         28.06187        35.86331         1.00634
C         26.86148        35.21243         0.61138
C         28.04553        37.25839         1.36911
C         26.86070        37.97389         1.20775
C         28.02665        40.29581         1.68944
C         26.83131        39.45632         1.27501
C         28.12089        41.80409         1.43983
C         26.91237        42.58896         1.22886
C         28.11604        44.72349         1.38724
C         26.90522        44.01904         1.34974
C         28.14130        46.10414         1.08255
C         26.91293        46.76759         0.79757
C         28.17877        48.85533         0.38085
C         26.93707        48.15843         0.42598
C         28.19805        50.23539         0.04406
C         26.99054        50.89567        -0.23855
C         28.27071        53.06673        -0.55746
C         27.03621        52.27129        -0.76380
C         28.20536        54.47144        -0.61626
C         27.01371        55.20756        -0.85609
C         27.02110        56.60641        -0.81378
C         29.27419        12.64563         1.14912
C         30.59208        14.79845         0.76563
C         29.25168        14.15309         0.99285
C         30.65512        16.14914         0.39770
C         29.51893        16.77692        -0.39033
C         30.56971        19.01944         0.03027
C         29.40664        18.27328        -0.26407
C         30.57938        20.39944        -0.21231
C         29.39892        21.05667        -0.60865
C         30.73239        23.25107        -1.10146
C         29.42806        22.46189        -1.07152
C         30.61257        24.71637        -0.63341
C         29.34606        25.40845        -1.11068
C         30.64464        27.55550        -1.17500
C         29.36128        26.84549        -1.20386
C         30.63238        28.94743        -1.13753
C         29.36265        29.70103        -1.12671
C         30.58482        31.78493        -0.16230
C         29.34907        31.13795        -0.62931
C         30.54992        33.05289         0.41164
C         29.28970        33.76492         0.55936
C         30.51618        35.79474         1.24137
C         29.28209        35.12533         0.93174
C         30.50938        37.09021         1.78086
C         29.27295        37.92841         1.90409
C         30.56251        40.30731         2.02732
C         29.28670        39.50750         2.06868
C         30.55218        41.82838         2.15103
C         29.28139        42.49751         1.72111
C         30.61185        44.62496         1.36045
C         29.33542        44.00597         1.88310
C         30.67212        46.13097         1.40493
C         29.38621        46.80886         0.98288
C         30.67455        48.84902         0.42210
C         29.40802        48.15405         0.62648
C         30.66096        50.23565         0.14138
C         29.46195        50.95804        -0.02628
C         29.45120        52.35926        -0.25152
C         31.79690        16.90447         0.66174
C         33.07347        19.06047         0.25335
C         31.78321        18.40354         0.69392
C         33.11260        20.41782         0.05132
C         31.83075        21.16871         0.01378
C         33.14569        23.31209        -0.56459
C         31.85978        22.62163        -0.31249
C         33.14668        24.65440        -0.91192
C         31.91328        25.42912        -0.98240
C         33.19291        27.50868        -1.47564
C         31.90087        26.78580        -1.24951
C         33.17481        28.97443        -1.13499
C         31.87869        29.73447        -1.05381
C         33.08366        31.75783         0.08746
C         31.86646        31.16251        -0.51016
C         33.03849        33.02322         0.61440
C         31.77931        33.73882         0.70673
C         33.00664        35.81581         1.21182
C         31.76196        35.08521         1.11329
C         32.98757        37.18151         1.62321
C         31.77793        37.60007         2.16261
C         33.09992        40.39099         2.24692
C         31.75734        39.78586         2.42097
C         33.09385        41.84196         1.84457
C         31.80176        42.49714         1.60735
C         33.05528        44.53927         0.91869
C         31.79400        43.87602         1.29067
C         33.02817        45.92939         0.58347
C         31.88901        46.71776         0.72927
C         31.86816        48.09477         0.40754
C         34.32539        21.15577        -0.16078
C         35.61105        23.21156        -0.52748
C         34.35981        22.52493        -0.44387
C         35.69348        24.55484        -0.87691
C         34.43273        25.22260        -1.48433
C         35.55501        27.30728        -0.40946
C         34.57958        26.78226        -1.49301
C         35.64037        28.82040        -0.40761
C         34.33119        29.52439        -0.35526
C         35.58047        31.54492         0.59251
C         34.27783        30.89144         0.24272
C         35.56594        32.97204         1.04389
C         34.22983        33.67469         1.30827
C         35.43287        35.95801         0.97418
C         34.24338        35.17193         1.07169
C         35.43140        37.35015         1.04831
C         34.13322        38.11414         1.25071
C         35.54833        40.24790         1.48832
C         34.29288        39.49269         1.95037
C         35.48215        41.70259         1.24284
C         34.32404        42.44337         1.28781
C         34.24458        43.81764         0.87941
C         36.90451        25.26111        -0.85546
C         38.08641        27.38272        -0.56647
C         36.91735        26.67240        -0.63997
C         38.13278        28.80030        -0.07429
C         36.80324        29.50426        -0.22206
C         37.99242        31.65991        -0.04040
C         36.82120        30.94539         0.03719
C         38.04797        33.10787         0.28682
C         36.80892        33.79033         0.79777
C         37.82627        36.02133        -0.00560
C         36.62860        35.24049         0.45644
C         37.78777        37.46118         0.22646
C         36.62960        38.10704         0.70152
C         36.59949        39.51570         0.78990
C         39.25755        29.64468        -0.63262
C         40.32647        31.85511        -0.92541
C         39.20550        31.00849        -0.54561
C         40.29635        33.21029        -0.81826
C         39.14119        33.92903        -0.31252
C         39.08387        35.29365        -0.29480
O         19.84388        41.99752         1.93046
O         24.07686        56.08913        -2.17151
O         31.96904        30.88595        -1.96060
O         16.19325        16.08802         0.93694
O         23.62211        53.91530         0.89435
O         11.62601        29.19069         2.70568
O         21.25984        14.04804        -2.14525
O         10.19475        35.36243        -0.97639
O         33.93546        29.70817         1.06655
O         25.93749        41.08351        -0.33772
O         19.50752        20.42161         1.05078
O         37.88051        33.46695         1.72152
O         13.83643        20.31028         2.10978
O         26.92798        40.03356         2.63129
O         19.96810        33.52931         1.76625
O         33.32172        41.40508         3.28443
O         15.25482        46.53780         1.24069
O         11.63158        33.69628         2.13413
O         24.81111        16.45736         1.07774
O         22.87031         7.10022         2.70818
O         24.15227        11.69201        -1.55559
O         20.39997        43.99801        -0.89351
O         18.52740        27.85350         1.33192
O         26.47318        52.26453        -2.13625
O         29.08858        38.61207         3.18566
O         22.65508        20.71801        -2.46622
O          8.46442        28.98279         1.75002
O         21.24012        18.29454        -2.34217
O         34.45078        24.75930        -2.79964
O         35.75904        31.89513         2.01164
O         35.35403        39.68152         2.88220
O         29.29461        30.86639        -2.04854
O         22.91229        57.06682         1.00980
O         20.93466         9.66232        -1.90735
O         31.80064        38.59336         3.12490
O         12.71102        25.02517         2.55230
O         36.75852        35.52340        -0.97910
O         26.82432        18.36824        -2.42701
O         33.27288        28.53590        -2.51385
O         26.53765        13.72888         1.52139
O         28.75503        22.63620        -2.36971
O         31.63817        22.19931         1.06508
O         16.53591        35.70790        -1.87160
O         26.18405        27.04592        -2.81094
O         14.36603        34.16900        -1.61609
O         25.70851        33.66645        -1.84242
H         26.49018        33.23518        -2.25063
O         21.52218        43.95841         2.56850
H         22.33047        43.71054         3.07755
O         26.00117        18.87375         1.13284
H         25.78268        17.97186         1.47951
O         35.22809        27.09466        -2.72330
H         35.02202        26.31391        -3.31468
O         28.15047        31.03938         1.38522
H         27.38717        31.37405         1.90193
O         35.03298        26.89379         0.87340
H         35.54880        27.34119         1.57730
O         33.96537        33.55368         2.73372
H         34.39900        32.71909         3.03284
O         24.51085        47.40618        -1.41429
H         24.83886        48.07977        -2.04759
O         22.39314        29.24672        -2.20118
H         23.09791        29.35015        -2.87847
O         15.15006        24.47126        -1.21988
H         15.44878        25.31487        -1.65157
O         24.23524        47.49622         2.22744
H         24.10087        46.79055         2.89448
O         29.31779        44.28428         3.34473
H         29.83779        43.55272         3.77690
O         16.52910        42.26055         1.66059
H         17.31374        42.46994         2.21180
O         16.94208        46.63916        -1.97991
H         17.81389        46.90704        -2.34082
O         25.91150        54.60426        -2.83103
H         26.45946        53.83997        -3.12677
O         12.64623        35.99953         1.77483
H         12.25549        35.47559         2.51240
O         38.39412        28.70160         1.37214
H         38.37456        29.61416         1.73462
O         16.03818        42.06361        -1.97187
H         16.61577        41.33100        -2.30798
O         29.90690        16.52361        -1.79778
H         29.32230        17.07024        -2.36914
O         33.72629        38.55260        -0.11013
H         33.82990        37.78617        -0.71518
O         24.04824        25.10212        -2.79837
H         24.75290        25.57162        -3.30248
O         16.14637        28.76611         2.40952
H         17.03289        28.33648         2.49504
O         12.22809        39.68209         1.85751
H         12.21531        40.62777         2.11866
O         12.57679        35.91699        -1.85895
H         12.84687        35.05226        -2.25195
O         30.83386        46.46338         2.83115
H         30.21371        45.86426         3.32561
O         19.14192        26.81588        -2.14630
H         19.90867        26.42729        -2.61941
O         15.79347        19.45668        -1.37277
H         15.75726        18.73174        -2.03166
O         25.34316        16.15352        -2.29127
H         26.14523        17.72285        -2.75311
O         31.66182        18.73796         2.12723
H         31.62847        19.71718         2.19944
O         24.26297        43.77011         2.94253
H         25.04703        43.26468         3.24879
O         22.60045        28.75014         1.39498
H         22.75791        29.45295         2.07258
O         30.49027        24.68496         0.81423
H         30.58383        25.59836         1.15554
O         18.26779        14.24602         1.52021
H         17.48272        14.71442         1.88568
O         22.43274        31.84223        -1.74035
H         23.05026        32.31553        -2.33741
O         31.20160        23.25282        -2.46127
H         30.40960        23.24776        -3.04812
O         22.54716        31.19620         1.83053
H         21.80507        31.55311         2.36331
O         13.30084        22.63637         2.82157
H         12.76494        23.33507         3.26441
O         25.47979        29.49948        -2.93923
H         26.04479        28.87315        -3.45305
O         28.81896        14.73430         2.25537
H         27.89707        14.41395         2.42611
O         19.91026        10.28815        -2.70346
H         20.36239        11.09115        -3.06307
O         21.74830        47.99403        -1.61362
H         22.54384        47.52031        -1.95359
O         22.21821        38.10245        -1.52303
H         23.02829        38.62245        -1.71302
O         28.74400        14.02134        -1.38945
H         29.39288        14.66711        -1.76440
O          6.32137        30.73356         1.74445
H          6.84035        30.07663         2.26420
O         16.35438        19.60711         2.21124
H         15.54469        19.61154         2.77287
O         30.64776        42.03454         3.61896
H         31.58313        41.81787         3.87607
O         20.84330        48.85614         1.82734
H         20.09512        49.37023         2.19642
O         17.24387        39.61967        -2.12116
H         16.53954        39.05509        -2.51725
O         16.50343        26.84475        -1.61818
H         17.34244        26.81028        -2.14853
O         17.08625        33.24213        -1.95112
H         16.45825        33.82183        -2.44543
O         23.69643        24.71949         0.82224
H         22.96324        24.42878         1.40411
O          6.38611        33.60053         2.03639
H          6.21354        32.62871         2.11689
O         19.98864        20.60083        -2.54762
H         20.62710        20.24048        -3.20527
O         19.29521        29.70752        -1.70498
H         20.16299        29.93619        -2.10910
O         14.40329        38.17137        -2.17407
H         13.85152        37.39443        -2.43663
H          5.51904        31.28855        -1.10459
H          5.47448        33.73845        -0.93304
H          7.86855        26.70663        -0.59251
H          6.99009        29.48864        -1.24862
H          6.13884        35.87379         0.62198
H          7.40806        38.01849         0.31018
H         10.14972        22.67723         0.04315
H          8.96649        24.78512        -0.12068
H          8.62478        40.12881         0.02503
H          9.82767        42.27631        -0.05820
H         12.39187        18.28645         0.11034
H         11.34321        20.60148        -0.10618
H         11.05443        44.42803         0.00864
H         12.26278        46.55798        -0.20841
H         14.91350        13.81659        -1.15261
H         13.63056        16.44151        -1.20947
H         13.60764        48.79967        -0.56389
H         14.87391        50.93784        -0.34144
H         17.28351         9.72662        -0.07289
H         16.09476        11.80977        -0.73266
H         16.14488        53.05670        -0.30985
H         17.40584        55.18377        -0.29360
H         19.74859         5.55498         0.81716
H         18.48184         7.69920         0.59288
H         18.63925        57.30232        -0.35218
H         19.93999        59.46726        -0.41009
H         23.26761         2.28195         1.13066
H         21.09288         3.42892         0.82770
H         23.35526        62.74613        -1.09966
H         21.20627        61.57444        -0.67659
H         25.35626         3.54090         1.55135
H         26.51740         5.73695         1.89921
H         26.76671        59.35876        -0.91263
H         25.49681        61.48930        -1.22621
H         27.71725         7.87792         1.87965
H         28.97256         9.96282         1.62110
H         29.12235        55.03962        -0.39114
H         27.97864        57.11960        -0.62777
H         30.20919        12.16228         1.47323
H         31.47629        14.34202         1.24054
H         31.62043        50.76312         0.02797
H         30.39821        52.91489        -0.17261
H         32.64410        16.41029         1.16456
H         34.00570        18.47515         0.26541
H         33.95589        46.39079         0.20935
H         32.80161        48.58172         0.08413
H         35.27774        20.60583        -0.10694
H         36.50374        22.71423        -0.11110
H         36.38553        42.16590         0.81543
H         35.16945        44.32219         0.56143
H         37.86129        24.72333        -0.95904
H         39.04531        26.86181        -0.71954
H         38.69932        38.05239         0.05527
H         37.42751        40.09347         0.35222
H         40.18134        29.14943        -0.96891
H         41.22463        31.35961        -1.32255
H         41.16359        33.80332        -1.14501
H         39.94377        35.87941        -0.65525
