         429
 CSIRO Nanostructure Databank - Neutral Graphene Oxide Data Set
C          1.43711         1.92031         0.77346
C          1.38622         3.34862         0.76601
C          2.52959         1.23115         0.31172
C          2.39838         4.10449         0.20955
C          1.21983         6.27225         0.50888
C          1.22321         7.64628         0.65642
C          2.40385         5.56155         0.20501
C          2.41460         8.39647         0.50377
C          1.35982        10.45574         1.40036
C          1.40350        11.80226         1.69884
C          2.45287         9.81584         0.77339
C          2.51733        12.58953         1.32919
C          1.58270        14.63327         2.58717
C          1.69770        15.93782         2.97772
C          2.47636        14.05789         1.58211
C          2.84487        16.73680         2.65277
C          2.97244        18.08077         3.16235
C          3.67166         1.93178        -0.20511
C          3.55111         3.39566        -0.37584
C          4.85473         1.29411        -0.51873
C          4.82857         4.18618        -0.61046
C          3.59835         6.30288        -0.03847
C          3.60307         7.72442         0.11123
C          4.84458         5.63367        -0.30931
C          4.80301         8.48412        -0.12987
C          3.61069        10.57946         0.43511
C          3.60528        11.99424         0.66987
C          4.76583         9.89491        -0.08275
C          4.75872        12.82958         0.22562
C          3.75832        14.87939         1.28197
C          3.92239        16.16057         1.96627
C          4.94391        14.18665         0.77302
C          5.18835        16.81776         1.87016
C          4.13650        18.77217         3.02836
C          5.31376        18.16004         2.44411
C          6.07934         2.01410        -0.76469
C          6.09764         3.44541        -0.67116
C          7.29173         1.32763        -0.90746
C          7.30448         4.14694        -0.66565
C          6.03946         6.33531        -0.34953
C          6.04632         7.76970        -0.33599
C          7.35563         5.59848        -0.24995
C          7.26576         8.45256        -0.53046
C          5.95660        10.65775        -0.50839
C          5.99405        12.14889        -0.31772
C          7.25655         9.92187        -0.70137
C          7.29022        12.86890        -0.24069
C          6.15869        14.86200         0.66456
C          6.24915        16.20745         1.18785
C          7.34060        14.19268         0.11431
C          7.47496        17.01443         1.00207
C          6.52470        18.79717         2.47556
C          7.76871        18.06035         2.06648
C          8.52291         2.02412        -0.97885
C          8.52333         3.45411        -0.86423
C          9.75744         1.33354        -1.08264
C          9.75587         4.17734        -1.00475
C          8.53444         6.34972        -0.82654
C          8.47016         7.75340        -0.84573
C          9.74191         5.63138        -1.07741
C          9.63025         8.54126        -1.31598
C          8.53791        10.67905        -0.39102
C          8.51703        12.17114        -0.82496
C          9.75494         9.96270        -0.93475
C          9.82256        12.81680        -0.41368
C          8.58336        14.98338        -0.33672
C          8.69194        16.39389         0.28359
C          9.88983        14.18367        -0.12626
C          9.95126        16.97972         0.67699
C          8.91694        18.94191         1.67986
C         10.02835        18.35726         1.09048
C         10.97587         2.02879        -1.12899
C         10.94759         3.46423        -1.16937
C         12.22503         1.32713        -1.07904
C         12.20760         4.17995        -1.39629
C         10.95914         6.32207        -1.32237
C         10.93812         7.77469        -1.54477
C         12.20336         5.65393        -1.36650
C         12.20653         8.51283        -1.47854
C         10.96495        10.60991        -0.96237
C         11.07460        11.97100        -0.30859
C         12.19601         9.93132        -1.32950
C         12.30691        12.74242        -0.72689
C         11.11128        14.83490         0.06814
C         11.23325        16.21171         0.65874
C         12.41784        14.12325        -0.14366
C         12.26138        17.06031        -0.14810
C         11.28979        19.05248         0.97948
C         12.41250        18.45135         0.43529
C         13.47011         1.94509        -0.91308
C         13.52077         3.43214        -1.13879
C         14.64284         1.13349        -0.84480
C         14.66826         4.31775        -0.84601
C         13.42832         6.36491        -1.50775
C         13.40817         7.79625        -1.58536
C         14.68005         5.67664        -1.27658
C         14.65322         8.54588        -1.79464
C         13.41648        10.65625        -1.39313
C         13.41038        12.09780        -1.21812
C         14.65201         9.99928        -1.60214
C         14.63788        12.83217        -1.63823
C         13.53297        15.00006        -0.68107
C         13.56183        16.31760        -0.34759
C         14.69846        14.36209        -1.34903
C         14.88905        17.00992        -0.10420
C         13.64251        19.14623         0.30375
C         14.83896        18.52077        -0.08464
C         15.87112         1.62930        -0.33494
C         15.81132         3.82282        -0.21531
C         17.19766         1.31338        -0.57828
C         17.09369         4.39048        -0.37645
C         15.92359         6.37794        -1.20707
C         15.99495         7.79658        -1.61919
C         17.11093         5.73115        -0.83802
C         17.15960         8.60813        -1.25502
C         15.89357        10.70408        -1.59541
C         15.91004        12.11938        -1.70364
C         17.12957         9.97528        -1.41174
C         17.15382        12.84956        -1.97561
C         15.98571        15.01710        -1.28534
C         15.98655        16.46061        -0.98453
C         17.18811        14.39954        -1.80419
C         17.21728        17.26856        -1.21687
C         16.04461        19.22769        -0.19286
C         17.27134        18.60950        -0.57091
C         18.32228         2.16451        -0.20590
C         18.29693         3.60996        -0.18087
C         19.56392         1.52121        -0.04735
C         19.53945         4.33399        -0.12802
C         18.41573         6.45986        -1.00143
C         18.30061         7.91482        -0.53450
C         19.58151         5.74254        -0.35968
C         19.63496         8.61028        -0.68910
C         18.35537        10.78522        -1.15866
C         18.48703        12.10195        -1.91551
C         19.63594        10.07502        -0.85248
C         19.68563        12.92417        -1.44208
C         18.49048        15.08139        -1.58718
C         18.50279        16.59804        -1.72758
C         19.68731        14.36213        -1.49874
C         19.75392        17.22209        -1.16257
C         18.49340        19.22802        -0.39633
C         19.73389        18.54563        -0.65645
C         20.77335         2.22285         0.18668
C         20.76373         3.65814         0.13053
C         21.99035         1.54858         0.40772
C         21.98085         4.38736         0.28516
C         20.77483         6.46093        -0.22076
C         20.78497         7.89525        -0.51078
C         21.98521         5.80410         0.15430
C         22.10772         8.54854        -0.61440
C         20.89298        10.80501        -1.03892
C         20.88775        12.21986        -1.17769
C         22.14259        10.06917        -0.93305
C         22.15489        12.93406        -1.12865
C         20.96922        15.07429        -1.44050
C         20.98010        16.52548        -1.30391
C         22.16921        14.36256        -1.35359
C         22.19816        17.24204        -1.13741
C         20.94747        19.16744        -0.30030
C         22.17998        18.55418        -0.57017
C         23.20385         2.25751         0.59043
C         23.20376         3.69572         0.53761
C         24.41782         1.57490         0.80818
C         24.40961         4.42722         0.74134
C         23.20440         6.54617         0.38131
C         23.22962         7.93903         0.08501
C         24.39653         5.84856         0.72274
C         24.43877         8.73754         0.29272
C         23.36816        10.82177        -0.61712
C         23.33158        12.23395        -0.80641
C         24.52574        10.11502        -0.23945
C         24.58888        12.98267        -0.62291
C         23.46160        15.06449        -1.59405
C         23.47812        16.63212        -1.54087
C         24.69800        14.29516        -1.29809
C         24.68794        17.63875        -1.58039
C         23.39765        19.21423        -0.17770
C         24.64266        18.71440        -0.51786
C         25.63180         2.27895         0.97543
C         25.64087         3.70865         0.95143
C         26.85127         1.57603         1.18894
C         26.88457         4.39850         1.09588
C         25.63279         6.58273         1.21538
C         25.69630         8.05910         0.79772
C         26.92598         5.83455         1.00414
C         26.99972         8.65150         0.38844
C         25.80977        10.73168        -0.23207
C         25.85815        12.19190        -0.42809
C         26.99863        10.01289        -0.06177
C         27.15396        12.82312        -0.71081
C         25.95440        14.75997        -1.55675
C         26.03185        16.97075        -1.58006
C         27.17743        14.20120        -1.02835
C         27.10618        17.31250        -0.81898
C         25.85540        19.28548        -0.04755
C         27.10682        18.65106        -0.21496
C         28.04826         2.25728         1.37456
C         28.07697         3.66890         1.30171
C         29.28798         1.51494         1.81165
C         29.33471         4.41017         1.68774
C         28.14881         6.51364         0.89089
C         28.17172         7.90242         0.48614
C         29.39331         5.81065         1.11383
C         29.48945         8.46170        -0.00856
C         28.29122        10.62043        -0.57985
C         28.33734        12.12090        -0.50800
C         29.52628         9.96448        -0.04440
C         29.55502        12.83153        -0.42330
C         28.34834        14.96224        -0.81341
C         28.27092        16.42646        -0.53176
C         29.54488        14.26369        -0.47842
C         29.55577        17.13401        -0.14065
C         28.34043        19.28945         0.03037
C         29.58495        18.61676        -0.12318
C         30.56658         2.21205         1.41576
C         30.59550         3.62296         1.42314
C         31.73791         1.48182         1.20687
C         31.83315         4.30065         1.34664
C         30.62044         6.47341         1.05263
C         30.69219         7.85660         0.66359
C         31.87410         5.76101         1.31112
C         31.87766         8.58096         0.75205
C         30.71265        10.66945         0.07708
C         30.76400        12.11094        -0.13200
C         31.93012         9.97497         0.43938
C         31.98073        12.80194        -0.04778
C         30.78681        14.97137        -0.30437
C         30.81823        16.38858        -0.26655
C         32.00895        14.23683        -0.20425
C         32.03566        17.09307        -0.27156
C         30.81952        19.26115        -0.17007
C         32.05893        18.53990        -0.25442
C         32.99631         2.13709         1.12214
C         33.02584         3.55342         1.27630
C         34.21628         1.42891         0.94996
C         34.32228         4.21439         1.45277
C         33.06817         6.44399         1.33761
C         33.09447         7.94889         1.39011
C         34.35171         5.73573         1.52031
C         34.40283         8.55036         0.92458
C         33.16626        10.67899         0.47089
C         33.20515        12.08611         0.20538
C         34.40161         9.96598         0.63051
C         34.43884        12.77601         0.19402
C         33.23835        14.93011        -0.21908
C         33.26379        16.36063        -0.29303
C         34.47740        14.20198        -0.06404
C         34.49007        17.05953        -0.36443
C         33.29394        19.19886        -0.30741
C         34.52655        18.48296        -0.37491
C         35.46966         2.09218         0.86564
C         35.54750         3.51055         1.06737
C         36.66647         1.38140         0.61487
C         36.75884         4.21476         0.92789
C         35.61783         6.40827         1.17287
C         35.58654         7.82971         0.97526
C         36.79625         5.66710         0.98231
C         36.90344         8.57157         1.00752
C         35.61607        10.64631         0.43028
C         35.65999        12.04871         0.30149
C         36.85964         9.84153         0.17901
C         36.93202        12.73392         0.39126
C         35.69287        14.86045        -0.14522
C         35.73411        16.28883        -0.49060
C         36.90699        14.20981         0.38936
C         37.05073        17.01164        -0.56359
C         35.78214        19.15777        -0.38412
C         37.02441        18.48995        -0.39348
C         37.89589         2.05496         0.50397
C         37.94942         3.48145         0.61730
C         39.10540         1.32794         0.24535
C         39.18721         4.16017         0.40033
C         38.05203         6.34511         0.68096
C         38.10907         7.74580         0.62046
C         39.24013         5.59180         0.41198
C         39.31356         8.42964         0.29639
C         38.14945        10.60829         0.31922
C         38.13321        12.03823         0.42086
C         39.32663         9.88334         0.21715
C         39.44183        12.68012         0.84913
C         38.17678        14.97798         0.53098
C         38.35456        16.23056        -0.33239
C         39.44997        14.22740         0.84333
C         39.50585        17.09614         0.08874
C         38.24606        19.17181        -0.33209
C         39.49359        18.47619        -0.19520
C         40.29830         1.98184         0.08029
C         40.36413         3.40846         0.13437
C         41.58936         4.09602        -0.08879
C         40.47260         6.26266         0.14451
C         40.50910         7.69554         0.08887
C         41.64071         5.46998        -0.08625
C         41.73637         8.41928        -0.18025
C         40.58111        10.59389        -0.13099
C         40.63463        12.09434         0.08615
C         41.78942         9.77091        -0.28128
C         41.91958        12.83015         0.22833
C         40.75633        14.96197         0.77109
C         40.81124        16.49460         0.56804
C         41.97583        14.13534         0.55102
C         41.94295        17.03857        -0.26646
C         40.73866        19.14615        -0.39140
C         41.90898        18.37400        -0.58984
O         14.36051        13.80995        -2.67726
O          2.60737        14.84344         0.36571
O         13.02747         3.67434        -2.50250
O         25.18069        12.89718         0.71232
O          7.79355        17.40289        -0.32756
O         17.08463        13.73393        -3.13167
O         10.07837         8.20202        -2.65813
O         26.11201        15.85420        -2.41652
O         34.43170         4.93475         2.74355
O          3.91681         3.86380        -1.71779
O         37.27349        14.97408         1.66232
O         22.39234         9.04261        -1.97093
O          8.50518        15.05782        -1.72375
O          6.47093        10.32038        -1.85047
O         23.41690        15.88599        -2.79761
O         16.15438        17.23236        -2.24305
O         18.77527        10.77674         0.23234
O         24.90250         8.84187         1.74014
O         28.66101        16.59700         0.88836
O          5.02633        12.78443        -1.21886
O         15.44443         8.07781        -2.93438
O         36.41869        16.58454        -1.81702
O         40.36396        11.58397        -1.24247
O         15.67865         2.69405         0.58090
O         40.09217        14.70656         2.07217
O         11.68145        17.21524        -1.46404
H         12.32674        17.66915        -2.04503
O         25.49924         6.57284         2.68062
H         25.00107         7.39545         2.90978
O          8.61109        10.66962         1.06413
H          9.48520        11.04874         1.33338
O         39.62143        12.23747         2.21795
H         39.84449        13.03308         2.75755
O         24.51639        18.32652        -2.84755
H         24.36670        17.63023        -3.52589
O         17.96364         7.93690         0.87766
H         18.07317         8.86773         1.17934
O         29.26917         1.47021         3.25596
H         29.31642         2.40243         3.57134
O         38.78026        15.67251        -1.61994
H         38.04567        15.85307        -2.25821
O          7.61445         5.55080         1.21069
H          8.44257         5.04059         1.34069
O         28.26655        10.32730        -2.02905
H         28.55764         9.38410        -2.12795
O         36.77437         9.42100        -1.21996
H         36.91391        10.21060        -1.78372
O         11.24326        11.67275         1.16085
H         11.90793        10.95216         1.22893
O         18.56351        16.84740        -3.16180
H         17.63451        16.80282        -3.49042
O         12.91595        13.83887         1.25206
H         12.31828        13.12640         1.60033
O         29.25794         4.54506         3.16005
H         28.43947         5.04913         3.36235
O         33.03104         8.29761         2.81937
H         32.25778         7.83228         3.20372
O          8.19333        17.28480         3.24998
H          8.44020        17.92329         3.95196
O         41.05403        17.05697         1.90435
H         40.48870        16.54361         2.52749
O         37.09182         8.97090         2.39309
H         36.97068         8.18130         2.96072
O         18.70873         6.54046        -2.42470
H         18.71374         5.63282        -2.79309
O         29.57277         8.01180        -1.43850
H         30.48665         8.20160        -1.74367
O          8.44155        12.29410        -2.25679
H          8.37167        13.27401        -2.43205
O         18.79781        11.71302        -3.27995
H         18.51519        12.45623        -3.86120
O         11.72953        16.11891         2.02247
H         12.35371        15.34523         2.03630
O         15.24868        16.61229         1.25895
H         14.54241        16.93206         1.86051
H          0.58354         1.37087         1.19448
H          0.51265         3.83395         1.22282
H          2.56110         0.13341         0.36703
H          0.27494         5.72749         0.63779
H          0.27764         8.15051         0.89408
H          0.46783         9.88219         1.68216
H          0.54101        12.26739         2.19324
H          0.80806        14.00376         3.04662
H          0.95991        16.35972         3.67641
H          2.10404        18.54036         3.65620
H          4.90981         0.19731        -0.44457
H          4.22458        19.79868         3.41262
H          7.29294         0.22841        -0.94729
H          6.62476        19.77903         2.96320
H          9.75798         0.23367        -1.09898
H          8.97334        19.96774         2.07284
H         12.18333         0.22787        -1.03872
H         11.34627        20.08855         1.34567
H         14.56760         0.08893        -1.18379
H         13.65956        20.22365         0.53244
H         17.43914         0.38389        -1.11538
H         16.05571        20.30063         0.05389
H         19.59738         0.42222        -0.08609
H         18.53598        20.23258         0.04968
H         22.00246         0.44889         0.43563
H         20.92938        20.17237         0.14519
H         24.42313         0.47549         0.84103
H         23.31997        20.10162         0.46860
H         26.83205         0.47754         1.24486
H         25.80637        20.23016         0.51499
H         29.27219         0.45892         1.44519
H         28.34216        20.36207         0.27635
H         31.69851         0.38289         1.17327
H         30.85556        20.36064        -0.14051
H         34.18763         0.33427         0.84563
H         33.31937        20.29857        -0.29483
H         36.63292         0.28869         0.49422
H         35.78365        20.25682        -0.32294
H         39.05694         0.23147         0.17853
H         38.25250        20.27188        -0.36276
H         41.22038         1.41635        -0.11790
H         42.50102         3.51159        -0.27981
H         42.60449         5.95971        -0.27736
H         42.66821         7.85286        -0.31242
H         42.74361        10.26577        -0.51137
H         42.85530        12.28478         0.03127
H         42.95564        14.62772         0.64301
H         42.84122        16.43565        -0.46090
H         40.74557        20.22448        -0.60434
H         42.79028        18.85157        -1.04342
