         204
 CSIRO Nanostructure Databank - Neutral Graphene Oxide Data Set
C        -11.06284         0.71874        -0.47461
C         -9.85601         1.46040        -0.25613
C         -8.64977         0.74474        -0.00262
C         -7.43839         1.47463         0.20037
C         -6.21079         0.73683         0.32257
C         -4.98905         1.41406         0.24741
C         -3.72927         0.62943         0.02570
C         -2.45024         1.40410         0.25250
C         -1.24954         0.73530         0.46324
C         -0.00766         1.43287         0.43633
C          1.22203         0.70471         0.41891
C          2.45072         1.40945         0.41124
C          3.69882         0.68761         0.33494
C          4.93355         1.40702         0.40753
C          6.16407         0.70043         0.34994
C          7.39471         1.43566         0.31925
C          8.62969         0.71085         0.27953
C          9.87505         1.40585        -0.01295
C         11.04249         0.70541        -0.55142
C         -9.81807         2.87067        -0.35794
C         -8.65088         3.62533        -0.14604
C         -7.42898         2.90955         0.18792
C         -6.15571         3.56366         0.26809
C         -4.94376         2.82026         0.15010
C         -3.70301         3.49731        -0.05828
C         -2.46474         2.81810         0.03414
C         -1.22236         3.54709         0.06429
C         -0.00230         2.84744         0.30547
C          1.22192         3.56583         0.44818
C          2.46336         2.83303         0.53950
C          3.69791         3.51893         0.62004
C          4.93264         2.82996         0.51039
C          6.17247         3.55590         0.52998
C          7.39919         2.84541         0.39127
C          8.66126         3.56304         0.25615
C          9.85090         2.79123        -0.04160
C         -8.69806         5.03746        -0.50457
C         -7.81344         5.99709        -0.04819
C         -6.01263         4.97348         0.42537
C         -4.93125         5.70887        -0.06599
C         -3.73864         4.92127        -0.40584
C         -2.40613         5.67890        -0.45743
C         -1.19174         4.95131        -0.09793
C          0.00314         5.68244         0.11596
C          1.19469         4.97717         0.42078
C          2.40587         5.74054         0.72661
C          3.72002         4.96805         0.83963
C          4.97871         5.70513         0.64912
C          6.17664         4.98158         0.60457
C          7.48208         5.70369         0.83210
C          8.68126         4.93867         0.34046
C         -7.46908         7.30850        -0.52257
C         -6.19200         7.87484        -0.39292
C         -4.93820         7.14085        -0.23120
C         -3.69290         7.82503        -0.38053
C         -2.43812         7.14032        -0.33474
C         -1.19740         7.81415        -0.28324
C          0.01459         7.11902        -0.03906
C          1.25863         7.83508         0.06351
C          2.45411         7.16967         0.38768
C          3.71894         7.83902         0.40541
C          4.94134         7.13197         0.53392
C          6.21342         7.83239         0.38615
C          7.40638         7.15055         0.42214
C         -6.09458         9.30898        -0.59308
C         -4.91649         9.98381        -0.54233
C         -3.65186         9.28255        -0.45868
C         -2.45906         9.96505        -0.50355
C         -1.15419         9.25249        -0.73137
C          0.09589         9.97378        -0.32046
C          1.26649         9.28640        -0.08028
C          2.53598         9.96292         0.03326
C          3.72442         9.27483         0.19625
C          5.00255         9.95393         0.13140
C          6.17571         9.27050         0.18745
C        -11.06790        -0.65520        -0.47334
C         -9.86392        -1.40306        -0.26575
C         -8.65506        -0.68799        -0.02886
C         -7.44359        -1.42032         0.16256
C         -6.21703        -0.72212         0.35595
C         -5.02371        -1.44690         0.52178
C         -3.76787        -0.66936         0.84471
C         -2.49718        -1.41195         0.50254
C         -1.21146        -0.71705         0.87841
C          0.02106        -1.44902         0.40084
C          1.19797        -0.73223         0.28117
C          2.44016        -1.41862        -0.21872
C          3.71058        -0.70513         0.14464
C          4.92856        -1.42776         0.11960
C          6.16046        -0.72133         0.23619
C          7.39163        -1.44185         0.22121
C          8.56452        -0.67176         0.45533
C         10.28880        -1.65982        -0.39566
C         11.19751        -0.62101        -0.85369
C         -9.84811        -2.82490        -0.32497
C         -8.67615        -3.56038        -0.12499
C         -7.45162        -2.84570         0.15371
C         -6.25024        -3.55556         0.38357
C         -5.01823        -2.86762         0.51051
C         -3.77024        -3.61611         0.53083
C         -2.50005        -2.89017         0.35984
C         -1.21101        -3.60349         0.37998
C         -0.00956        -2.88760         0.28691
C          1.25921        -3.60330         0.17647
C          2.47386        -2.89253         0.08967
C          3.70737        -3.58348         0.04086
C          4.95207        -2.85554         0.01546
C          6.18789        -3.55259        -0.09928
C          7.43626        -2.84189        -0.07879
C          8.63645        -3.53018        -0.52761
C          9.83919        -2.81107        -0.97958
C         -8.64299        -5.00086        -0.25600
C         -7.49440        -5.73597        -0.04072
C         -6.28750        -5.02565         0.44692
C         -4.98669        -5.77435         0.54555
C         -3.72520        -4.99769         0.55331
C         -2.46560        -5.70596         0.49409
C         -1.25562        -5.03058         0.37923
C         -0.01132        -5.77518        -0.02033
C          1.27429        -5.01552         0.16338
C          2.48813        -5.72384         0.07018
C          3.71629        -5.00760         0.01808
C          4.95321        -5.70657        -0.16953
C          6.17095        -4.97858        -0.26276
C          7.38976        -5.67302        -0.54016
C          8.57507        -4.90448        -0.75364
C         -7.42106        -7.17593        -0.16616
C         -6.23067        -7.87606        -0.12318
C         -4.91990        -7.12810        -0.13260
C         -3.75452        -7.93285         0.41589
C         -2.49021        -7.18190         0.67237
C         -1.20040        -7.94633         0.69269
C          0.07533        -7.18689         0.50269
C          1.30855        -7.91379         0.15351
C          2.49694        -7.17537        -0.00691
C          3.72639        -7.86045        -0.20210
C          4.95101        -7.12640        -0.29994
C          6.18093        -7.81577        -0.53274
C          7.37316        -7.08167        -0.66726
C         -6.13625        -9.30928        -0.25151
C         -4.94865       -10.00522        -0.20115
C         -3.68116        -9.38138         0.09147
C         -2.46848       -10.04508         0.11214
C         -1.19887        -9.38939         0.35054
C          0.01393       -10.02675         0.14305
C          1.28670        -9.33159         0.08659
C          2.50988        -9.99961        -0.15529
C          3.71974        -9.28892        -0.28713
C          4.97824        -9.95424        -0.51276
C          6.14635        -9.25289        -0.63778
O         -0.14814        -5.96880        -1.47737
H         -0.20373        -5.08117        -1.89145
O         -0.38605        -7.50691         1.84374
O         -1.05540         9.16852        -2.21999
H         -1.79762         8.60045        -2.52195
O         -1.14860        -0.72747         2.34984
H         -0.34200        -0.23666         2.61722
O         -3.08783         5.22216        -1.68182
O         -3.73460         0.25577        -1.38064
H         -3.65187         1.07626        -1.90990
O         -4.61570        -6.83495        -1.53148
H         -4.71394        -7.66447        -2.04464
O          2.98430         5.40984         2.03877
O          2.37150        -1.33656        -1.69682
H          1.50018        -1.69902        -1.96558
O          7.63891         5.74472         2.31338
H          6.82075         6.14850         2.67611
O         -3.82425        -0.34771         2.24796
H         -2.90669        -0.36259         2.61445
O          9.71501        -1.35071         0.85865
O         -2.52325        -1.95964        -0.83024
O         -3.38608        -7.59281         1.77903
O         -5.80722        -5.63305         1.72336
O         -7.04777         5.63106         1.08762
H         12.06231        -0.91540        -1.46937
H         11.83664         1.38060        -0.91300
H         10.76825         3.34157        -0.30374
H          9.63082         5.48196         0.21730
H          8.34925         7.71080         0.32119
H          7.13333         9.80515         0.10118
H          5.00354        11.04532        -0.00753
H          2.55843        11.05492        -0.10356
H          0.11609        11.07116        -0.40706
H         -2.47280        11.06247        -0.59686
H         -4.90035        11.07998        -0.63169
H         -7.03434         9.86725        -0.72058
H         -8.25852         7.93324        -0.97156
H         -9.45518         5.32852        -1.24931
H        -10.74402         3.39873        -0.63281
H        -11.99596         1.27203        -0.65700
H        -12.00604        -1.20177        -0.65001
H        -10.78763        -3.35501        -0.54409
H         -9.56731        -5.51346        -0.56539
H         -8.36447        -7.73093        -0.29519
H         -7.07014        -9.87103        -0.40872
H         -4.96472       -11.09550        -0.35104
H         -2.44779       -11.11970        -0.13061
H          0.01343       -11.10461        -0.08480
H          2.52169       -11.09763        -0.23064
H          4.98556       -11.05187        -0.58769
H          7.09157        -9.78711        -0.81543
H          8.31437        -7.61320        -0.87407
H          9.47667        -5.42613        -1.10890
H         10.33775        -3.19693        -1.88198
