         275
 CSIRO Nanostructure Databank - Neutral Graphene Oxide Data Set
C         30.73596        31.53004         0.02291
C         30.88653        32.42395         0.85460
C         30.71961        35.37039         1.60491
C         30.73976        36.60900         1.75438
C         30.42800        39.82531         1.41217
C         30.29570        41.06132         1.51052
C         32.96328        29.55702        -2.14913
C         31.92121        29.88602        -1.57992
C         32.95890        32.01107        -0.88098
C         31.56853        31.30889        -1.20010
C         33.12950        32.93324         0.13178
C         32.12554        33.10971         1.31190
C         33.18830        35.44153         1.77248
C         31.95626        34.56353         1.74199
C         33.10445        36.98827         1.93472
C         31.70374        37.64723         1.61790
C         32.72798        39.86082         0.77343
C         31.56281        38.96935         1.30596
C         32.63176        41.36720         1.06605
C         31.40698        41.97639         1.35292
C         32.53385        44.06288         1.30737
C         31.47438        43.41745         1.43889
C         35.50254        28.36544        -3.33890
C         35.46158        29.83913        -3.03116
C         34.13267        30.35612        -2.52581
C         35.45979        32.39519        -1.65098
C         34.10384        31.68043        -1.78555
C         35.49258        33.35885        -0.48344
C         34.35466        33.69926         0.25056
C         35.60191        35.74688         0.99726
C         34.51136        34.76149         1.34983
C         35.51404        37.12581         1.16007
C         34.12639        37.72987         1.05432
C         35.27653        40.03033         0.86641
C         34.04361        39.26899         1.33118
C         35.19560        41.51166         0.66884
C         33.82469        42.19870         0.60059
C         35.01774        44.41358         0.90330
C         33.87461        43.66639         1.04047
C         35.17131        45.84201         0.93744
C         37.84614        28.12642        -2.93342
C         36.56355        27.73505        -3.46846
C         37.89129        29.28285        -2.19703
C         36.57258        30.00749        -1.89763
C         37.94429        32.04574        -1.33451
C         36.72212        31.48814        -1.61745
C         37.96890        33.53957        -1.03870
C         36.74890        33.97992        -0.24938
C         38.00174        35.97359         0.47817
C         36.80652        35.18555         0.47732
C         37.94357        37.34660         0.85848
C         36.68569        37.93355         1.08514
C         37.83842        40.22922         1.17957
C         36.58347        39.39627         1.26464
C         37.73564        41.67335         0.64406
C         36.41688        42.31464         1.15069
C         37.50896        44.54453         1.11052
C         36.37235        43.81087         0.91050
C         37.59295        46.08129         1.09099
C         36.17650        46.55799         0.91032
C         40.21495        24.83821        -1.11753
C         39.39817        25.46371        -1.91197
C         40.30532        27.60917        -1.20889
C         39.51779        26.81827        -2.14630
C         40.27969        28.99240        -1.17530
C         39.28129        29.90393        -1.96565
C         40.39922        31.94552        -1.01548
C         39.21125        31.31160        -1.36228
C         40.42996        33.32977        -0.56778
C         39.24710        34.04196        -0.42402
C         40.42148        36.14921         0.16378
C         39.22357        35.38401         0.08340
C         40.41604        37.50069         0.51841
C         39.15184        38.14850         0.81152
C         40.33523        40.33918         0.71604
C         39.10183        39.52305         0.95144
C         40.21189        41.77015         1.19207
C         38.95037        42.47561         1.04279
C         40.01248        44.60644         0.68421
C         38.86198        43.92560         1.42661
C         39.81165        45.76449        -0.12796
C         38.50914        46.40853        -0.06494
C         39.20774        47.80977        -1.91578
C         38.38066        47.34718        -1.06861
C         42.56666        24.76088        -0.03786
C         41.31861        25.25916        -0.46442
C         42.56563        27.48849         0.00761
C         41.20184        26.84553        -0.18079
C         42.53564        28.96277         0.11588
C         41.54894        29.68851        -0.76380
C         42.97840        31.88979        -0.47163
C         41.68136        31.18227        -0.92036
C         42.87868        33.34763        -0.13944
C         41.68690        34.00865        -0.28710
C         42.95740        36.24688        -0.02941
C         41.66170        35.48686        -0.23259
C         42.87220        37.60543         0.55115
C         41.65643        38.22465         0.69649
C         42.83895        40.45536         0.90875
C         41.60760        39.63388         1.28556
C         42.77045        41.80688         0.79345
C         41.51004        42.54766         1.09128
C         42.54028        44.68027         0.09354
C         41.37380        44.00984         0.76588
C         42.32602        46.05072        -0.58474
C         40.84997        46.32524        -0.96361
C         41.69697        47.87691        -2.61916
C         40.55899        47.39925        -1.87446
C         43.64627        25.37977         0.10802
C         44.90853        27.46449         0.80632
C         43.75835        26.80527         0.34420
C         44.85863        28.90332         1.37906
C         43.68018        29.68855         0.76128
C         45.10052        31.89779         0.90436
C         43.82448        31.18173         0.57268
C         45.31052        33.31037         0.51167
C         44.13378        34.04654         0.15358
C         45.47334        36.16450         0.14838
C         44.17015        35.44051         0.14664
C         45.39398        37.53192         0.79990
C         44.11863        38.26446         1.01893
C         45.33026        40.45905         0.52121
C         44.16451        39.79208         1.24515
C         45.21388        41.76385         0.13868
C         44.05020        42.62234         0.64287
C         44.83163        44.40845        -1.10159
C         43.74866        43.82959        -0.25692
C         44.60605        45.75176        -1.75119
C         43.36763        46.35032        -1.69627
C         42.84940        47.41949        -2.45767
C         47.27550        27.38071         1.56615
C         46.19841        26.97772         1.07391
C         47.46119        28.85503         1.93243
C         46.23277        29.59214         1.26814
C         47.50586        31.80470         1.70622
C         46.32566        31.07271         1.09986
C         47.71614        33.24190         1.25118
C         46.56816        33.97501         0.83448
C         47.84278        36.16552         0.98503
C         46.62010        35.38848         0.73727
C         47.81006        37.59228         0.54022
C         46.64374        38.29378         0.59016
C         47.69997        40.32700        -0.24215
C         46.57539        39.71531         0.28156
C         47.69518        41.81245        -0.49044
C         46.27745        42.33929        -0.78988
C         47.29875        44.31795        -1.91986
C         46.25363        43.88767        -0.84489
C         46.82829        45.47022        -2.52668
C         45.74903        46.13756        -2.51004
C         50.10401        28.91466         1.80281
C         48.76185        29.47346         1.40142
C         49.83461        31.63184         2.30347
C         48.77926        30.97119         1.70353
C         50.15103        33.00501         1.87560
C         48.94860        33.95412         1.87224
C         50.48157        36.18826         0.98262
C         49.12782        35.46020         1.37693
C         50.13499        37.28180        -0.11937
C         49.10894        38.33432         0.38203
C         49.91365        40.09135        -1.29119
C         48.92758        39.58591        -0.47291
C         49.80464        41.44571        -1.86551
C         48.67328        42.24464        -1.57464
C         49.53670        43.87160        -3.01815
C         48.46069        43.54632        -2.15823
C         51.29960        28.87508         1.47950
C         52.69697        30.78415         1.30146
C         52.61335        29.37774         1.26420
C         52.26344        31.93254         1.46572
C         51.49190        33.13212         1.53674
C         52.63570        35.99698        -0.24777
C         51.72829        35.33936         0.53942
C         52.33760        37.13891        -0.79985
C         51.34100        38.03480        -0.77156
C         52.14587        39.95900        -2.25624
C         51.00234        39.10715        -1.76904
C         51.95186        41.04374        -2.83370
C         50.86974        41.96326        -2.71698
C         50.58924        43.22544        -3.26831
O         32.63965        34.81468         2.99302
O         33.70476        31.55458        -3.21534
O         42.44883        29.43365         1.53266
O         43.91558        31.84597        -1.65618
O         42.06969        30.27164        -2.00809
O         42.34478        36.13049        -1.36857
O         43.85528        43.44787        -1.66781
O         35.34181        40.60031        -0.46570
O         37.21236        39.92469         2.47103
O         44.79049        37.53426         2.11765
O         38.98925        27.42542        -3.28420
O         41.66669        39.58765         2.67261
O         40.96550        42.18254         2.39855
O         42.36083        44.80337         1.53478
O         46.52538        30.17387        -0.02998
O         48.43405        36.25993         2.39385
O         52.20399        34.26515         1.24911
O         33.51767        42.33957        -0.90122
O         43.97860        31.81251         1.87335
O         37.70441        41.60301        -0.79990
H         38.57381        41.25127        -1.10305
O         33.97639        39.54327         2.73919
H         34.79060        39.22094         3.18065
O         42.62817        47.06129         0.40213
H         42.44849        46.66844         1.29019
O         44.42982        43.08742         1.94854
H         44.46382        42.30071         2.54091
O         35.86476        30.57640        -4.16226
H         35.10332        30.66839        -4.77289
O         35.56901        33.22692        -2.84025
H         35.12466        32.73464        -3.57318
O         44.61674        28.78325         2.79641
H         43.64088        28.85413         2.92948
O         39.85432        30.09904        -3.28051
H         39.93354        29.21738        -3.70824
O         50.43036        38.44007        -2.92281
H         51.14338        37.93728        -3.37125
O         46.62575        44.49128         0.39088
H         47.36287        43.97728         0.80053
O         32.71306        32.38287         2.39659
H         32.16883        32.53409         3.19843
O         45.77039        36.43094        -1.27156
H         45.61731        35.60265        -1.77538
O         33.37658        37.24333         3.30850
H         32.95299        36.52289         3.82945
O         50.69672        31.05534         3.17161
H         50.34192        30.19303         3.47362
O         50.95974        36.83924         2.16517
H         51.08164        36.17080         2.87068
O         44.29533        40.05159         2.65870
H         43.39841        39.81159         3.04296
O         48.78365        29.26290        -0.01637
H         49.45123        29.85262        -0.42155
O         34.61681        43.05898        -1.49942
H         34.18396        43.88208        -1.83445
O         47.09864        31.88098         3.11264
H         47.65625        32.58112         3.54186
O         47.41983        29.00825         3.32668
H         46.49771        28.83797         3.62876
O         53.65689        28.60451         0.94966
H         53.40374        27.66031         0.94062
O         45.97950        41.85302        -2.11569
H         45.06050        42.13607        -2.33844
O         33.77502        37.41267        -0.31225
H         33.34696        38.19343        -0.75209
O         48.67089        34.03407         3.30817
H         48.15969        34.87272         3.44775
O         38.17731        46.57694         2.28268
H         38.37325        45.82647         2.89200
O         31.01896        31.94972        -2.31169
H         30.17835        31.51524        -2.56025
O         35.02531        34.04508         2.50343
H         34.32302        33.40205         2.77336
O         40.50397        40.46128        -0.73526
H         40.62644        39.55914        -1.10549
O         35.96153        29.40707        -0.72775
H         36.62940        29.34972        -0.01338
O         37.95100        34.25894        -2.30794
H         37.10448        34.02498        -2.77007
O         32.67441        39.75054        -0.66827
H         33.24130        40.46742        -1.05649
O         49.47819        38.88125         1.66419
H         49.39642        38.15922         2.33246
O         43.28799        32.57212        -2.73508
H         42.74161        31.87449        -3.17890
O         49.50517        36.53134        -1.17075
H         49.45035        37.11202        -1.97077
O         39.02561        44.05011         2.88426
H         39.84477        43.53927         3.11640
O         36.35498        42.22246         2.59196
H         37.13819        42.67793         2.97479
O         48.17927        42.40474         0.75404
H         48.86642        41.81511         1.13392
O         40.48213        26.98538         1.05661
H         41.05350        26.67331         1.78921
