         228
 CSIRO Nanostructure Databank - Neutral Graphene Oxide Data Set
C        -10.41107         0.57894         2.28012
C         -9.42912         1.30028         1.54321
C         -8.40178         0.58259         0.89924
C         -7.46998         1.30793         0.01217
C         -6.27380         0.53419        -0.50931
C         -5.08842         1.29644        -1.00789
C         -3.76535         0.61852        -0.96963
C         -2.54727         1.40838        -0.97968
C         -1.24216         0.74663        -0.92510
C         -0.11235         1.40010        -0.50818
C          1.29154         0.87349        -0.75496
C          2.25768         1.34713         0.33999
C          3.33516         0.64664         0.80333
C          4.72235         1.26364         0.60307
C          5.91103         0.67889         1.45042
C          7.28233         1.42660         1.33138
C          8.58649         0.67222         1.22357
C          9.78329         1.36560         0.68008
C         11.02211         0.58271         0.67865
C         -9.47960         2.73503         1.39997
C         -8.52655         3.45070         0.71273
C         -7.41238         2.79160         0.06466
C         -6.33371         3.51123        -0.44231
C         -5.17604         2.80240        -1.05560
C         -3.87405         3.53755        -1.18671
C         -2.61262         2.79344        -0.95274
C         -1.47844         3.54421        -0.40278
C         -0.23676         2.78637        -0.01234
C          0.99111         3.59611         0.27244
C          2.25873         2.83165         0.47501
C          3.51736         3.54406         0.22814
C          4.72993         2.77508         0.56720
C          6.00443         3.55806         0.70759
C          7.31810         2.86025         0.91022
C          8.53310         3.47378         0.30683
C          9.73567         2.65880         0.23707
C         -8.69443         4.94083         0.52681
C         -7.40012         5.66541         0.23566
C         -6.27229         4.96727        -0.27396
C         -5.10623         5.71503        -0.58105
C         -3.87220         5.01311        -1.00112
C         -2.58775         5.71230        -0.76756
C         -1.38987         5.01124        -0.58114
C         -0.15831         5.71493        -0.46539
C          1.06888         5.02234        -0.10661
C          2.29901         5.67747        -0.09565
C          3.53858         4.92305         0.08256
C          4.81904         5.61580         0.03985
C          6.00037         4.95325         0.23558
C          7.32398         5.68980         0.21213
C          8.49544         4.77796        -0.08666
C         -7.32946         7.03912         0.45204
C         -6.16503         7.78242         0.15384
C         -5.05122         7.11990        -0.42052
C         -3.82787         7.88978        -0.77989
C         -2.58182         7.10347        -0.96429
C         -1.33049         7.71034        -1.16050
C         -0.12634         7.09915        -0.76747
C          1.06713         7.89873        -0.26105
C          2.36575         7.11214        -0.35840
C          3.57094         7.76025        -0.47096
C          4.86483         7.12400        -0.02811
C          6.09199         7.61470        -0.77171
C          7.24991         6.91117        -0.67102
C         -6.04642         9.15531         0.59784
C         -4.87936         9.84320         0.52806
C         -3.70405         9.35055        -0.21369
C         -2.40244         9.99411         0.14002
C         -1.25708         9.82778        -0.57003
C          0.12899        10.27404        -0.41832
C          1.17827         9.39365        -0.59739
C          2.48586         9.92959        -0.86728
C          3.62953         9.15777        -0.86538
C          4.89366         9.68145        -1.34322
C          6.02538         8.92568        -1.38827
C        -10.36941        -0.79871         2.35941
C         -9.31189        -1.54084         1.75622
C         -8.30625        -0.82648         1.03304
C         -7.15894        -1.54769         0.54425
C         -6.08517        -0.85813        -0.07421
C         -4.86488        -1.50877        -0.34682
C         -3.70330        -0.74760        -0.76939
C         -2.44804        -1.44728        -1.14008
C         -1.18355        -0.66073        -1.38116
C          0.16170        -1.38982        -1.59577
C          1.39990        -0.61981        -1.08395
C          2.63288        -1.35590        -0.64361
C          3.74714        -0.61159         0.08287
C          4.76396        -1.51474         0.72904
C          6.03132        -0.77093         1.01826
C          7.30386        -1.51642         1.06633
C          8.61091        -0.81512         1.23405
C          9.73121        -1.50990         0.46996
C         11.02992        -0.76982         0.67557
C         -9.24079        -2.95826         1.85315
C         -8.15378        -3.67759         1.34199
C         -7.05908        -2.95058         0.75249
C         -5.87548        -3.63576         0.36195
C         -4.76576        -2.90450        -0.12033
C         -3.49633        -3.59624        -0.36806
C         -2.33790        -2.90804        -0.98229
C         -1.16401        -3.57661        -1.23798
C          0.12282        -2.86797        -1.20031
C          1.25644        -3.55074        -0.83628
C          2.44946        -2.82490        -0.21699
C          3.80022        -3.58713        -0.31183
C          4.83187        -2.85938         0.54278
C          5.90982        -3.66584         1.25295
C          7.31739        -2.97964         1.47291
C          8.52967        -3.69386         0.87624
C          9.71015        -3.00785         0.66568
C         -8.08170        -5.11429         1.40900
C         -7.01216        -5.81914         0.88003
C         -5.87408        -5.08504         0.34561
C         -4.82942        -5.76561        -0.25386
C         -3.53321        -5.10452        -0.43783
C         -2.49543        -5.75164        -1.26319
C         -1.17637        -5.05994        -1.59215
C         -0.00636        -5.82663        -0.97772
C          1.21338        -5.03665        -0.60627
C          2.52958        -5.81770        -0.61109
C          3.68709        -5.06696         0.01464
C          4.79145        -5.75167         0.47799
C          6.01837        -5.08039         0.78210
C          7.23866        -5.80990         0.84633
C          8.46288        -5.11641         0.81523
C         -6.91600        -7.26643         0.94367
C         -5.90439        -7.95635         0.31483
C         -4.95548        -7.20601        -0.53431
C         -3.81881        -7.89497        -1.23495
C         -2.73047        -7.00351        -1.70925
C         -0.79791        -8.11207        -1.79901
C          0.11276        -7.31679        -1.16778
C          1.24565        -7.97720        -0.51765
C          2.34602        -7.25331        -0.13732
C          3.47457        -7.95516         0.51160
C          4.74639        -7.20735         0.76877
C          6.02411        -7.95220         0.83176
C          7.20892        -7.25821         0.80648
C         -5.70826        -9.38745         0.36098
C         -4.60864        -9.99842        -0.17067
C         -3.51274        -9.30622        -0.85087
C         -2.31068        -9.95518        -0.96039
C         -0.97220        -9.59502        -1.63915
C          0.18888       -10.19218        -0.90057
C          1.22861        -9.44672        -0.41660
C          2.41975       -10.12530         0.05545
C          3.53979        -9.43238         0.42655
C          4.79102       -10.08237         0.74112
C          5.95886        -9.39276         0.90360
O          2.92502        -5.93861        -2.01841
H          3.35061        -5.08746        -2.28951
O          5.16374         3.31294         1.88501
O          1.51403         3.34774         1.62964
O          5.03124         7.57309         1.35765
H          5.90405         7.21968         1.66776
O          4.67584         0.42971        -0.68766
O          2.50992        -0.94261        -2.01322
O          4.24825        -3.52499        -1.69857
H          4.26976        -2.58312        -1.98093
O          1.76659         1.60397        -1.92115
H          2.40218         1.00634        -2.38310
O         -3.87539         4.42959        -2.36289
O         -2.06303        -0.97461        -2.50265
O          0.25832        -5.45842         0.41981
O          8.91320        -0.12051         2.44291
O          0.82062         7.92597         1.19687
H          1.67575         8.11435         1.64098
O         -1.02749       -10.21209        -2.95296
H         -1.61361        -9.64848        -3.50390
O          5.53058         0.68491         2.82508
H          5.73635         1.58193         3.17794
O         -3.05388        -4.43070         0.77156
O          2.11515        -2.71096         1.18954
H          1.89437        -3.60008         1.54188
O         -1.81880        -7.58331        -2.60594
O         -0.95292        -5.08952        -3.02089
H         -1.72935        -4.69936        -3.47258
O         -9.37096         5.52828         1.64277
H         -8.80206         5.43175         2.43344
O          0.34928        -1.43649        -3.03214
H         -0.54588        -1.51733        -3.43738
O          6.80535        -1.05973        -0.23160
O          7.60836        -3.01310         2.84661
O         -1.32647         8.99078        -1.71113
O          7.52498         6.19765         1.58418
H          7.53433         5.42057         2.18554
O         -7.45613         0.72715        -1.34151
O          5.37393        -3.92741         2.57727
H          6.13655        -3.66798         3.19466
O         -5.40921         1.99390        -2.25474
O          9.39040        -1.32325        -0.94717
H         10.07882        -1.76718        -1.48506
O         -5.06854        -7.63502        -1.95999
O          7.45698         2.48575         2.32788
O         -3.99506         9.06120        -1.61271
O          3.81125        -7.48235         1.87359
O         -1.26186         3.04604         0.99093
H         11.98106        -1.32384         0.68620
H         11.97316         1.13781         0.68985
H         10.64575         3.12939        -0.16499
H          9.40512         5.23796        -0.50389
H          8.17703         7.28994        -1.12916
H          6.94746         9.33913        -1.82426
H          4.90348        10.70654        -1.74295
H          2.55572        10.99121        -1.15154
H          0.34377        11.35616        -0.39707
H         -2.39330        10.60229         1.05598
H         -4.79386        10.81943         1.02961
H         -6.90604         9.59336         1.12680
H         -8.19830         7.55229         0.89023
H         -9.37208         5.09174        -0.36195
H        -10.31184         3.28094         1.86930
H        -11.22500         1.13393         2.76856
H        -11.15008        -1.34079         2.91271
H        -10.05889        -3.49776         2.35410
H         -8.91967        -5.65994         1.86898
H         -7.67455        -7.81470         1.52333
H         -6.45718        -9.99753         0.88801
H         -4.49651       -11.08557        -0.03833
H         -2.30564       -10.98925        -0.57268
H          0.24542       -11.29041        -0.85354
H          2.43793       -11.22530         0.01887
H          4.79931       -11.18174         0.78346
H          6.89645        -9.94153         1.07566
H          8.16624        -7.79969         0.82930
H          9.38638        -5.68931         0.62746
H         10.63019        -3.57660         0.44499
