         576
 CSIRO Nanostructure Databank - Neutral Graphene Oxide Data Set
C          6.06175        18.89614         0.57134
C          5.89402        20.32714         0.36825
C          4.74340        21.07956         0.90277
C          5.92405        23.24172         0.71547
C          4.73950        22.43440         0.97181
C          5.90608        24.63956         0.83234
C          8.48468        14.75998        -0.48378
C          8.44902        16.15096        -0.32831
C          7.29870        16.83037         0.11749
C          8.48082        19.01600         0.02555
C          7.24885        18.24765         0.21373
C          8.47262        20.42329         0.12135
C          7.18396        21.14680         0.10936
C          8.35222        23.30885         0.39046
C          7.15060        22.57755         0.42574
C          8.33120        24.69859         0.59194
C          7.09782        25.41066         0.74084
C          8.23954        27.63007         0.58761
C          7.07268        26.84280         0.70882
C          8.26111        29.01521         0.33198
C         10.92521        10.48406        -0.79700
C         10.89501        11.88223        -0.73225
C          9.70648        12.61435        -0.83765
C         10.91749        14.74343        -0.82585
C          9.70019        14.05071        -0.74271
C         10.95894        16.19968        -0.85605
C          9.66666        16.93883        -0.61847
C         10.93438        19.06991        -0.22185
C          9.71650        18.36256        -0.21305
C         10.93450        20.47846        -0.06171
C          9.68624        21.14036         0.07325
C         10.92131        23.36700         0.06114
C          9.60275        22.61164        -0.00462
C         10.87821        24.75432         0.49369
C          9.59567        25.42560         0.73560
C         10.77101        27.65977         0.42390
C          9.53769        26.95062         0.78611
C         10.73232        28.98521         0.08093
C          9.48007        29.74760         0.09762
C         10.68005        31.88648        -0.68656
C          9.49787        31.12778        -0.09525
C         10.78561        33.38217        -0.40762
C         13.40383         6.14689        -0.63765
C         13.30356         7.53317        -0.05560
C         12.13646         8.35454        -0.55098
C         13.35972        10.48720        -0.30806
C         12.12199         9.73845        -0.53489
C         13.42060        11.85082        -0.51388
C         12.15584        12.65886        -0.39494
C         13.47292        14.78858        -0.96986
C         12.18063        13.99336        -1.15548
C         13.50996        16.13911        -0.81902
C         12.23664        16.87921        -0.38682
C         13.50605        19.08087        -0.20548
C         12.21172        18.39617        -0.72517
C         13.41756        20.57985        -0.33771
C         12.20405        21.22681        -0.11509
C         13.36811        23.31944         0.57352
C         12.18761        22.64843         0.13573
C         13.32985        24.74829         0.85254
C         12.07688        25.43018         0.68142
C         13.32721        27.62874         0.45380
C         12.03254        26.88140         0.41094
C         13.19608        29.09506         0.57804
C         12.01105        29.70866        -0.12218
C         13.15945        31.96469         0.14414
C         12.00020        31.16186        -0.43566
C         13.25312        33.36980        -0.40959
C         11.97136        34.08014        -0.41356
C         13.24952        36.21078        -0.48871
C         12.05279        35.53416        -0.48237
C         13.32516        37.65079        -0.55446
C         15.85777         6.16676        -0.45205
C         14.58873         5.50315        -0.72061
C         15.82340         7.60792        -0.22254
C         14.61631         8.26872        -0.13281
C         15.86928        10.48452         0.08539
C         14.56568         9.72331         0.05786
C         15.83605        11.93189        -0.22376
C         14.67797        12.58707        -0.54233
C         16.04566        14.73002        -1.05201
C         14.71894        13.96691        -1.24264
C         16.13084        16.24818        -1.29085
C         14.75748        16.95114        -1.07763
C         16.05916        19.20856        -0.82055
C         14.73426        18.44938        -0.86840
C         16.01237        20.70775        -0.54266
C         14.64663        21.44082        -0.57092
C         15.72078        22.87919         1.21873
C         14.58115        22.55437         0.46454
C         15.68132        24.99455         1.74474
C         14.48534        25.57146         1.19915
C         15.72351        27.72763         1.17246
C         14.52153        26.96190         0.98210
C         15.73229        29.09116         0.94891
C         14.46428        29.85083         0.78918
C         15.72531        31.80368        -0.25593
C         14.44610        31.15730         0.07023
C         15.71192        33.24948        -0.63959
C         14.44926        34.01841        -0.53659
C         15.82193        36.21042        -0.71115
C         14.55634        35.49735        -0.22546
C         15.81371        37.66003        -0.69118
C         14.51767        38.31322        -0.57104
C         18.32926         6.15443        -0.39029
C         17.05424         5.48704        -0.50534
C         18.33955         7.60139        -0.32952
C         17.08517         8.33658        -0.23718
C         18.34293        10.47171        -0.44005
C         17.10011         9.71817        -0.17669
C         18.34067        11.93687        -0.17256
C         17.06752        12.67544         0.19264
C         18.40195        14.79654         0.03187
C         17.20131        14.04907        -0.41079
C         18.38679        16.21890        -0.02643
C         17.28288        16.93820        -0.51012
C         18.67551        19.20708        -0.23403
C         17.36449        18.42087        -0.63875
C         18.34059        20.48530         0.56203
C         17.22771        21.36966         0.08003
C         18.13790        23.26199         1.75725
C         17.03474        22.57406         0.93035
C         18.17503        24.79286         1.57343
C         16.96052        25.54703         1.61960
C         18.25847        27.68112         1.24479
C         16.98342        27.05733         1.72160
C         18.32312        29.19300         1.33616
C         16.98661        29.88447         0.99905
C         18.23799        31.92646         0.02440
C         16.96815        31.24371         0.35977
C         18.24617        33.25991        -0.24818
C         16.99965        33.97920        -0.60768
C         18.27314        35.96454        -1.11687
C         17.00143        35.45883        -0.73959
C         18.28009        38.07519        -0.97797
C         16.95226        38.48675        -0.63377
C         20.80156         6.11652        -0.38055
C         19.53216         5.45243        -0.42488
C         20.79814         7.56646        -0.29444
C         19.55672         8.26948        -0.31623
C         20.65457        10.24273         0.71576
C         19.68007         9.76433        -0.45879
C         20.67533        11.82056         0.95211
C         19.55465        12.61954         0.29937
C         20.69226        14.66714         1.12965
C         19.52890        14.00372         0.43322
C         20.84251        16.10268         0.71492
C         19.68694        16.91208         0.24580
C         20.71922        18.93728         1.24043
C         19.70525        18.37006         0.53236
C         20.68828        20.37133         1.73621
C         19.42843        21.12499         1.37867
C         20.65961        23.28673         1.46311
C         19.46242        22.59819         1.50024
C         20.66134        24.75705         1.35228
C         19.39897        25.46699         1.35120
C         20.67909        27.59733         0.87983
C         19.41823        26.92491         1.16339
C         20.66550        29.00799         0.51087
C         19.51909        29.75634         0.58617
C         20.70050        31.74866        -0.59058
C         19.46072        31.09389        -0.05587
C         20.67659        33.25050        -0.93515
C         19.56029        33.99929        -0.17429
C         20.68223        36.18974        -0.63513
C         19.50657        35.42907        -0.67963
C         20.73449        37.64951        -0.64089
C         19.52947        38.46801        -0.51831
C         23.27515         6.10757        -0.46995
C         22.01655         5.42324        -0.36523
C         23.25553         7.62240        -0.61602
C         21.99662         8.28528        -0.13914
C         23.22377        10.30600         0.52083
C         22.01955         9.64102         0.32048
C         23.21325        11.70546         1.12066
C         22.01238        12.47681         0.55804
C         23.19703        14.62130         1.04964
C         22.01376        13.94482         0.93678
C         23.23637        16.08306         1.23461
C         22.05634        16.77870         1.21917
C         23.22700        18.97938         1.38266
C         21.96536        18.19056         1.70645
C         23.18414        20.37763         1.40320
C         21.96141        21.13960         1.44812
C         23.16104        23.31055         1.60821
C         21.91333        22.53344         1.44242
C         23.16067        24.80792         1.46756
C         21.86306        25.47673         1.20600
C         23.16402        27.60810         0.83106
C         21.88406        26.88251         0.92633
C         23.15671        28.94030         0.49260
C         21.92762        29.56204        -0.13237
C         23.12388        31.81485        -0.21766
C         21.97606        31.08287        -0.24508
C         23.14148        33.26749        -0.43727
C         21.95659        33.96991        -0.60876
C         23.25425        36.13916        -0.20700
C         21.92476        35.42022        -0.35568
C         23.28782        37.66325        -0.19459
C         21.96508        38.29822        -0.55202
C         25.73264         6.23610        -0.96861
C         24.47386         5.45362        -0.60913
C         25.71357         7.56498        -0.22056
C         24.51139         8.26336        -0.09829
C         25.71828        10.28878         0.55344
C         24.48700         9.61929         0.33101
C         25.75443        11.80009         0.52621
C         24.48038        12.51226         0.89720
C         25.70102        14.65952         1.19740
C         24.45353        13.87651         0.98122
C         25.72216        16.13952         1.08423
C         24.49867        16.82623         1.23581
C         25.69360        18.96140         0.96968
C         24.46179        18.25712         1.22346
C         25.68351        20.38022         0.92718
C         24.47234        21.09894         1.38065
C         25.61569        23.35637         0.92019
C         24.46555        22.58466         1.47966
C         25.67672        24.82369         1.18629
C         24.44693        25.52828         1.24130
C         25.68298        27.63345         1.02714
C         24.44150        26.93523         1.08985
C         25.68406        29.05449         0.75866
C         24.38339        29.73693         0.65610
C         25.64731        31.83099        -0.07982
C         24.37959        31.20623         0.28675
C         25.60089        33.14169        -0.74053
C         24.38744        33.95542        -0.53965
C         25.64770        36.04425        -0.93356
C         24.46977        35.37119        -0.57857
C         25.66725        37.49155        -1.05065
C         24.49431        38.23220        -0.88755
C         28.07113         5.95691         0.14415
C         27.03819         5.49835        -0.84143
C         28.16660         7.46186        -0.04379
C         26.92495         8.19261         0.13796
C         28.23728        10.23514         0.61026
C         26.92432         9.56960         0.46659
C         28.29142        11.71354         0.86169
C         27.01001        12.42737         1.10551
C         28.28255        14.67497         1.10249
C         26.99209        13.92801         1.24011
C         28.22856        16.13885         0.87906
C         26.97447        16.82219         0.94642
C         28.11754        18.99549         0.54628
C         26.93191        18.26426         0.81052
C         28.05240        20.38927         0.40285
C         26.84748        21.09281         0.62602
C         28.11929        23.29570         0.63077
C         26.83150        22.58125         0.52045
C         28.13044        24.64789         1.09331
C         26.92623        25.48187         1.21041
C         28.11884        27.73721         1.21917
C         26.94548        26.94103         1.21036
C         28.13434        29.23357         1.10319
C         26.84368        29.81116         0.62387
C         28.10540        31.82949        -0.18649
C         26.85375        31.17062         0.12771
C         28.14145        33.15873        -0.71651
C         26.87983        33.81443        -1.13415
C         28.15356        36.02318        -1.17722
C         26.85933        35.30707        -1.48324
C         28.15223        37.44643        -1.23561
C         26.91238        38.14459        -1.30335
C         30.59511         5.94274        -0.10439
C         29.42691         5.27610         0.08936
C         30.58210         7.35852        -0.56259
C         29.32853         8.11529        -0.35964
C         30.59394        10.36021        -0.42566
C         29.44824         9.53746         0.06226
C         30.74313        11.78388         0.00825
C         29.42844        12.51600         0.23748
C         30.77317        14.69310         0.44127
C         29.53961        13.91981         0.80719
C         30.61600        16.13644         0.15738
C         29.43723        16.81033         0.49513
C         30.54561        18.98114        -0.16591
C         29.47536        18.31440         0.63894
C         30.54245        20.44285        -0.24820
C         29.24929        21.17209         0.01028
C         30.58467        23.21743         0.51241
C         29.31699        22.58849         0.43194
C         30.62687        24.55349         0.99206
C         29.40558        25.10203         1.45578
C         30.55412        27.59750         0.75810
C         29.43707        27.22274         1.45788
C         30.54140        28.90100         0.01628
C         29.34312        29.76497         0.36599
C         30.59982        31.72259        -0.44914
C         29.32262        31.06761        -0.06930
C         30.58843        33.21282        -0.42103
C         29.33693        33.87943        -0.82771
C         30.60431        36.01751        -1.04204
C         29.36664        35.31008        -1.05242
C         30.60989        37.43119        -1.10603
C         29.39594        38.13430        -1.18356
C         33.06594         6.04943         0.03195
C         31.92474         5.32459        -0.03442
C         33.01308         7.55192         0.17639
C         31.87002         8.11510        -0.65005
C         33.10067        10.35404        -0.72327
C         31.85496         9.60260        -0.82851
C         32.99926        11.81606        -1.10473
C         31.91066        12.45746        -0.20602
C         33.21086        14.63389        -0.37743
C         32.00647        13.91436         0.06217
C         33.07739        16.06968        -0.67080
C         31.74810        16.79213        -0.53997
C         32.99164        18.99345        -0.22212
C         31.73952        18.30724        -0.76159
C         33.00112        20.38000        -0.08175
C         31.81890        21.16582        -0.11939
C         33.03160        23.26726         0.41711
C         31.82333        22.55473         0.19974
C         33.06415        24.64631         0.79300
C         31.82652        25.32396         0.98997
C         33.00718        27.57312         1.10571
C         31.81198        26.78750         0.58302
C         32.99879        29.02067         0.72952
C         31.87957        29.61671         0.22581
C         33.15555        31.80651        -0.09685
C         31.90505        31.02061        -0.24240
C         33.16552        33.18223        -0.39099
C         31.88921        33.92998        -0.48628
C         33.15511        36.04737        -0.79336
C         31.91342        35.27025        -1.17655
C         33.07292        37.49029        -0.86691
C         31.88525        38.13489        -1.04125
C         34.28463         8.35344         0.04542
C         35.44263        10.61757         0.11673
C         34.25366         9.72609        -0.20430
C         35.63588        11.69372        -0.95765
C         34.38740        12.58322        -1.22004
C         35.64724        14.67609        -0.50205
C         34.40995        13.95169        -0.56387
C         35.57327        16.09034        -0.31174
C         34.35486        16.89926        -0.78778
C         35.51373        18.98617         0.10381
C         34.22625        18.17137         0.09254
C         35.52010        20.34097         0.19166
C         34.28932        21.10199        -0.05834
C         35.56674        23.27229         0.44754
C         34.29817        22.59538         0.12923
C         35.55400        24.68108         0.66064
C         34.30826        25.35942         0.87554
C         35.60745        27.55477         1.22380
C         34.30136        26.80263         1.22320
C         35.58506        29.05699         1.08171
C         34.27455        29.78615         0.84961
C         35.58030        31.85419         0.24768
C         34.33548        31.15477         0.29095
C         35.57350        33.23977        -0.07461
C         34.37632        33.92407        -0.34344
C         34.31441        35.37426        -0.50112
C         36.86359        12.54941        -0.76728
C         38.18945        14.59045        -0.84522
C         36.90309        13.93021        -0.64746
C         38.48786        15.81851        -0.26673
C         36.63710        16.81715         0.21501
C         38.01039        18.87904         0.01375
C         36.77454        18.24809         0.15386
C         37.97324        20.39618        -0.20199
C         36.81012        21.04489         0.55291
C         37.99278        23.25885         0.38288
C         36.77581        22.55631         0.41949
C         37.98635        24.67162         0.33918
C         36.80160        25.37111         0.59695
C         38.09071        27.57464         0.50177
C         36.86753        26.82123         0.89449
C         38.02825        29.00363         0.48349
C         36.83948        29.73937         0.65787
C         36.80023        31.12679         0.41622
C         39.41838        16.82396        -0.61429
C         40.43311        19.02144        -0.43118
C         39.27947        18.21289        -0.29301
C         40.46122        20.41917        -0.12683
C         39.27371        21.09725         0.08197
C         40.52141        23.28631         0.22733
C         39.28342        22.50997         0.61102
C         40.49701        24.63550         0.07162
C         39.21436        25.40465        -0.14463
C         39.23870        26.87266         0.20185
C         41.72024        21.15690        -0.04500
C         41.74672        22.50627         0.11109
O         33.47109        27.16880         2.40506
O          6.30019        20.76230        -0.97999
O         17.06612        14.04914        -1.86764
O         27.77675        11.89430         2.21787
O         22.55741        35.67041         0.98117
O         12.32040        30.19959        -1.47997
O         36.49036        27.10455         2.30042
O         29.20641         9.59623         1.51147
O         26.11932        33.05740        -2.14614
O         12.87333        32.24451         1.49323
O         20.22001         9.63457         1.87514
O         31.79093        14.35692         1.46940
O         34.38602        21.99191        -1.22873
O         26.32264        14.28430         2.49813
O         15.17603        10.15644         1.34334
O         16.88118        18.87550        -1.95189
O         29.52371        26.15118         2.35816
O         10.18061        23.16464        -1.21882
O         31.36885         7.43869        -1.82373
O         23.14264        24.16104         2.80577
O         15.49545        23.73746         2.31620
O         19.86886        30.97753        -1.52024
O         15.05207        30.96830        -1.25176
O         25.88728        23.07541        -0.50164
O         16.81684        31.10417         1.82567
O         20.69823        16.40377        -0.71557
O         17.00328        21.43852        -1.34919
O         19.32827        19.58348        -1.39041
O         14.50221        17.89007        -2.17675
O         37.65929        16.13741         0.84918
O         30.88393        10.07697        -1.81368
O         16.45124        33.44494        -1.90130
O         31.16244        33.85077         0.78790
O         18.28412        20.40807         2.01158
O         24.25530        30.79471         1.69657
O         12.82705        27.13422        -0.82286
O          9.64374        26.18503         2.01738
O         24.77678        21.80623         2.67209
O         18.31999        37.06169        -1.97028
O         34.89493        29.71638         2.18298
O         29.67710        20.94659        -1.35871
O         32.13439        16.14304        -1.81051
O         10.21761        16.76561        -1.98737
O         31.30274        31.16365        -1.61533
O         29.19705        14.20182         2.17899
O         13.50776        29.65159         1.87864
O         18.25932        11.44401        -1.55947
O         34.53666        13.05766        -2.54430
O         13.03724         7.34311         1.38716
H         12.27390         6.73319         1.46795
O         10.39910        31.80578        -2.12030
H         10.93466        31.04929        -2.46501
O         16.97650        12.83041         1.62712
H         16.65848        11.98629         2.01529
O         20.38779        14.69332         2.54625
H         20.34510        13.75048         2.84658
O         23.12385        11.55675         2.55422
H         22.16916        11.61264         2.81265
O         28.30508        29.72949         2.49398
H         27.46168        29.57467         2.97165
O         30.40911        28.63970        -1.42140
H         30.64762        29.48964        -1.88021
O         13.69027        18.83645         1.23030
H         13.07428        19.42027         1.72343
O         37.70314        20.59449        -1.61931
H         38.45377        20.22383        -2.12892
O         18.55886        29.47309         2.76111
H         18.16256        30.36000         2.94173
O         20.44493        33.38174        -2.34752
H         19.90945        32.60344        -2.62942
O         34.55725        17.30526        -2.14455
H         34.43235        16.52352        -2.72373
O         32.04885        34.95472        -2.60125
H         32.07027        35.80152        -3.09488
O         21.95737        18.05514         3.15597
H         21.66858        18.92846         3.52868
O         16.47176        16.36442        -2.67739
H         16.49461        17.32961        -2.89541
O         20.33973        10.02450        -1.70595
H         19.84284        10.75869        -2.14543
O         16.91016        27.29315         3.17516
H         17.46509        28.09114         3.37069
O         26.72592        35.40993        -2.93650
H         26.25980        34.58911        -3.22796
O         27.54609         5.77009         1.49262
H         27.35653         4.81700         1.61603
O         12.17276        18.60477        -2.14021
H         11.39572        18.11332        -2.50019
O         14.72740        35.51269         1.24337
H         13.99331        34.98388         1.62958
O         20.65459        20.32295         3.20558
H         19.71411        20.18610         3.46254
O         32.38733        11.91500        -2.40304
H         33.03286        12.46445        -2.94190
O         12.04474        13.72034        -2.57270
H         12.94872        13.70235        -2.97596
O         32.57900         7.82193         1.56307
H         33.18028         7.34164         2.17056
O         35.89415        11.01151        -2.19911
H         35.53448        11.66399        -2.87283
O         22.14966        12.41031        -0.88568
H         21.48476        13.00776        -1.29047
O         25.91280        12.10638        -0.91315
H         25.07254        11.87414        -1.36578
O         34.06338        17.63865         1.44145
H         33.90788        18.38126         2.06164
O         37.05477        20.77569         1.97408
H         36.34552        21.20445         2.49799
O         14.50586        22.01581        -1.89144
H         15.41191        22.17128        -2.24331
O         32.06437        26.66561        -0.85832
H         31.38998        27.20050        -1.35396
O         20.49544        11.99292         2.38254
H         20.17137        11.07541         2.67578
O         31.70189        18.58515        -2.18569
H         32.13052        17.82713        -2.64820
O         14.68051        13.61346        -2.65610
H         15.61998        13.55021        -2.95745
O         23.46749        38.06713         1.21260
H         23.03345        37.36354         1.75264
O         29.87613        18.52092         2.06014
H         29.31674        17.93169         2.61281
O         19.96338        33.98717         1.21657
H         19.33759        34.53199         1.73727
O         17.89371        23.02315         3.17018
H         16.98680        23.35434         3.37103
O         39.36830        22.35265         2.07286
H         38.65257        21.71871         2.33101
O         35.18092        11.28813         1.35420
H         34.95851        10.62385         2.03787
O         12.14965        16.72574         1.05424
H         12.90978        17.21140         1.45835
O         39.04943        25.40673        -1.62054
H         39.85588        25.80929        -2.00750
O         28.95587        12.75304        -1.13739
H         29.49877        12.23566        -1.77284
O         12.07733        13.02134         1.01523
H         12.13077        12.19846         1.54590
O         23.25726         7.88682        -2.07828
H         22.33189         7.80701        -2.39794
O         25.62799         6.53992        -2.38981
H         24.76701         7.01193        -2.53324
O         21.92226        29.09575        -1.52088
H         21.13688        29.51465        -1.94921
H          5.21148        18.30543         0.94437
H          3.85953        20.50917         1.22606
H          3.83758        22.95631         1.32509
H          4.94848        25.15281         1.00538
H          7.56339        14.18180        -0.31931
H          6.38292        16.25392         0.31623
H          6.09164        27.34052         0.68166
H          7.30590        29.55812         0.26531
H          9.99629         9.93423        -1.01387
H          8.74723        12.08523        -0.94495
H          8.53751        31.66704        -0.04540
H          9.83948        33.94741        -0.42767
H         12.46850         5.61531        -0.87432
H         11.19221         7.82220        -0.75208
H         11.11504        36.10488        -0.58139
H         12.38541        38.22398        -0.56722
H         14.62325         4.45426        -1.05423
H         14.51463        39.41381        -0.57225
H         17.04963         4.39856        -0.67178
H         16.80565        39.51951        -0.27906
H         19.51344         4.35459        -0.50118
H         19.62273        39.40160         0.05714
H         22.01583         4.32413        -0.31025
H         21.95550        39.39869        -0.50376
H         24.50257         4.35300        -0.62271
H         24.52819        39.32384        -1.02704
H         27.37851         4.98642        -1.75768
H         26.92316        39.24122        -1.39185
H         29.45664         4.21429         0.38519
H         29.40574        39.23382        -1.21524
H         34.04126         5.54122         0.08018
H         31.97765         4.22457        -0.03985
H         34.00013        38.07193        -0.75082
H         31.86327        39.23390        -1.08375
H         35.22836         7.89584         0.38531
H         36.37570         9.99195         0.20746
H         36.52533        33.79169        -0.06937
H         35.23749        35.94662        -0.31698
H         37.82342        12.02785        -0.92249
H         38.90265        14.12028        -1.53865
H         38.93936        29.55341         0.20030
H         37.74769        31.65091         0.21778
H         40.29991        16.53663        -1.20772
H         41.38492        18.52645        -0.67659
H         41.43913        25.16698        -0.14752
H         40.15157        27.43350        -0.05926
H         42.65776        20.59549        -0.16960
H         42.70591        23.04537         0.08147
