         470
 CSIRO Nanostructure Databank - Neutral Graphene Oxide Data Set
C         37.96714        50.07733        -2.70724
C         36.86305        50.75579        -3.19341
C         37.96619        52.86855        -2.78908
C         36.86295        52.16149        -3.23671
C         40.27826        48.65881        -1.58296
C         40.26540        50.07511        -1.72011
C         39.11184        50.77465        -2.24169
C         40.27754        52.93163        -1.84169
C         39.10752        52.20008        -2.28128
C         40.21372        54.35469        -1.60945
C         42.56929        48.68885        -0.71683
C         41.38726        47.99408        -1.11996
C         42.57168        50.12400        -0.79840
C         41.42672        50.80288        -1.33691
C         42.67961        52.96425        -1.21283
C         41.43716        52.22943        -1.47766
C         42.60471        54.48869        -1.05126
C         41.26360        55.06861        -1.11837
C         44.92274        45.85452         0.03274
C         43.83637        46.54497        -0.41551
C         44.83967        48.67627         0.33878
C         43.72243        47.96535        -0.29565
C         44.84002        50.20329         0.29137
C         43.72288        50.87997        -0.39135
C         45.01420        52.98710        -0.28027
C         43.80948        52.25892        -0.58970
C         45.01748        54.42899        -0.31143
C         43.67733        55.12971        -0.17805
C         44.94713        57.28204        -0.31105
C         43.77398        56.61659        -0.36967
C         47.52327        44.61791        -0.34724
C         47.45126        45.88792         0.26950
C         46.11884        46.49840         0.67271
C         47.29469        48.71478         0.77022
C         46.13369        48.00336         0.51837
C         47.30811        50.15402         0.70426
C         46.14905        50.87588         0.37391
C         47.48154        52.94113        -0.00976
C         46.18426        52.26895         0.06822
C         47.49881        54.45236        -0.24440
C         46.20431        55.16011        -0.22814
C         47.44196        57.30506        -0.09877
C         46.21734        56.59699        -0.17945
C         47.48673        58.73801        -0.11551
C         49.94582        44.59033        -0.08320
C         48.73756        43.99389        -0.53195
C         49.88841        45.89435         0.51124
C         48.62179        46.54802         0.65023
C         49.79580        48.67020         1.40759
C         48.46349        47.89966         1.34377
C         49.82660        50.07739         0.82578
C         48.55761        50.90284         1.15245
C         49.85998        53.01036         0.59762
C         48.67916        52.31087         0.56793
C         49.94745        54.46112         0.34806
C         48.73037        55.19616         0.07152
C         49.95097        57.35110        -0.00416
C         48.69247        56.58646         0.02155
C         49.92113        58.81051         0.08167
C         48.66020        59.45456        -0.02096
C         52.44344        41.96558        -1.07056
C         51.26700        42.59627        -0.84115
C         52.39914        44.53096         0.18980
C         51.20177        43.90997        -0.23873
C         52.32719        45.83356         0.78227
C         51.11210        46.50355         0.95431
C         52.37025        48.70936         1.20444
C         51.10456        47.93336         1.37847
C         52.39239        50.07424         1.13426
C         51.09984        50.81561         1.20484
C         52.40221        52.93428         0.73579
C         51.09406        52.29784         1.02951
C         52.42259        54.42244         0.64806
C         51.13744        55.15123         0.58304
C         52.40705        57.38969         0.87078
C         51.26938        56.60206         0.33688
C         52.29879        58.79249         0.76380
C         51.15260        59.49494         0.21347
C         52.49475        61.55552         0.01177
C         51.29886        60.88068        -0.12647
C         54.98529        40.25242        -0.77213
C         54.97289        41.71127        -0.55394
C         53.71727        42.57811        -0.68454
C         54.87677        44.44901         0.48296
C         53.67495        43.86742         0.03828
C         54.87655        45.80630         0.96738
C         53.58940        46.45967         1.22837
C         54.91212        48.66821         1.32724
C         53.62372        47.97303         1.42905
C         54.92087        50.07591         1.17626
C         53.65730        50.80987         1.09942
C         54.88019        52.94422         0.68535
C         53.65037        52.18728         0.98953
C         54.93333        54.40267         0.86024
C         53.65855        55.12699         1.09940
C         55.02246        57.22187         1.23648
C         53.64821        56.62545         1.29972
C         55.18861        58.57571         1.52283
C         53.32039        59.68770         1.23696
C         54.93223        61.58260         0.86282
C         53.55888        60.95756         0.75681
C         55.00583        63.00759         1.26981
C         57.37922        40.10731        -0.17527
C         56.12455        39.53001        -0.61038
C         57.32676        41.43111         0.47632
C         56.05595        42.25136         0.31356
C         57.31195        44.28207         0.94437
C         56.11944        43.70900         0.51574
C         57.30980        45.70103         1.34845
C         56.06357        46.48218         1.23376
C         57.37119        48.61582         1.38371
C         56.11477        47.91890         1.37574
C         57.37535        50.03460         1.33866
C         56.16846        50.75054         1.15981
C         57.41865        52.97215         0.92615
C         56.20517        52.17973         0.79045
C         57.40953        54.35283         0.73645
C         56.14881        55.06942         0.78269
C         57.45599        57.19704         0.83618
C         56.20229        56.50900         0.91128
C         57.49995        58.61424         0.90738
C         56.30133        59.32136         1.14288
C         57.52090        61.47303         1.24608
C         56.23051        60.79149         0.97244
C         57.48724        62.95745         1.31952
C         56.17672        63.63010         1.48510
C         59.83240        37.44487        -0.96065
C         58.69960        38.18085        -0.97962
C         59.82143        40.04314         0.24601
C         58.60074        39.45600        -0.29802
C         59.80929        41.43293         0.67628
C         58.58210        42.15859         0.72121
C         59.81308        44.24778         1.10461
C         58.55867        43.54528         0.97901
C         59.85869        45.66792         1.12501
C         58.62949        46.43694         1.40224
C         59.83529        48.58120         1.12072
C         58.62827        47.91167         1.30451
C         59.91730        50.00735         1.18055
C         58.67079        50.74014         1.44739
C         59.89280        52.90160         0.71656
C         58.68482        52.29820         1.21583
C         59.86488        54.30672         0.30085
C         58.65007        55.08034         0.61493
C         59.94936        57.21225         0.53195
C         58.69323        56.47957         0.63195
C         59.95080        58.64742         0.70517
C         58.75273        59.33493         0.89346
C         59.97911        61.40472         1.62214
C         58.70371        60.76631         1.19079
C         59.98348        62.87385         1.97467
C         58.75397        63.68129         1.66312
C         59.99160        65.71221         2.12928
C         58.79472        65.09453         2.10650
C         62.48850        36.07112        -1.28941
C         62.36091        37.19548        -0.35110
C         61.00802        37.90513        -0.20476
C         62.23935        39.84038         0.84516
C         60.99659        39.29937         0.26832
C         62.25656        41.33843         1.19485
C         61.01562        42.09953         0.98421
C         62.29272        44.20274         1.25247
C         61.04005        43.51403         1.11002
C         62.28689        45.61591         1.13888
C         61.08237        46.34478         1.01601
C         62.34994        48.53036         1.20077
C         61.07296        47.83247         0.67087
C         62.38746        50.02034         0.91458
C         61.14441        50.70876         1.06009
C         62.43030        52.91069         0.76405
C         61.14090        52.18809         0.98891
C         62.48790        54.25239         0.03103
C         61.18254        55.07111         0.07208
C         62.43178        57.23300         0.48490
C         61.17591        56.52462         0.35704
C         62.49555        58.61340         0.67880
C         61.23087        59.44073         0.47761
C         62.44120        61.44045         1.38725
C         61.26974        60.76985         1.23778
C         62.53082        62.78634         2.09446
C         61.26385        63.61205         1.93755
C         62.42251        65.76127         1.52891
C         61.23850        64.98727         1.88642
C         62.30453        66.97160         0.89916
C         64.88480        35.99592        -0.86501
C         63.70623        35.52890        -1.54483
C         64.85490        37.20587        -0.15329
C         63.60480        37.92292         0.00017
C         64.74651        39.91972         0.89784
C         63.54450        39.20079         0.55875
C         64.76987        41.28168         1.21810
C         63.54911        42.05064         1.24674
C         64.80913        44.14755         1.39874
C         63.53257        43.45235         1.36080
C         64.83543        45.62996         1.43130
C         63.55146        46.37392         1.29453
C         64.88176        48.50248         0.96807
C         63.59149        47.77024         0.71172
C         64.90454        49.93244         0.47324
C         63.61171        50.68639         0.72676
C         64.88628        52.81825         0.76403
C         63.68037        52.10921         0.67901
C         64.87726        54.27800         0.75979
C         63.70745        54.99653         0.52093
C         64.93727        57.18551         1.01405
C         63.69168        56.46181         0.44334
C         64.91326        58.63981         1.27529
C         63.74143        59.30481         0.97309
C         64.98724        61.51253         1.23791
C         63.70730        60.81259         0.88153
C         65.01118        62.92553         1.29469
C         63.79646        63.61693         1.78557
C         64.95482        65.88971         1.15269
C         63.75110        65.12680         1.65950
C         64.71749        67.19947         0.49556
C         63.43987        67.67391         0.37566
C         67.43267        33.27336        -1.64363
C         66.26796        33.97666        -1.67371
C         67.31662        35.64786        -0.05609
C         66.05322        35.10066        -0.76055
C         67.27476        37.06283         0.34862
C         66.05758        37.74821         0.44360
C         67.28864        39.80732         1.37487
C         65.98060        39.10351         1.04405
C         67.37788        41.28918         1.22267
C         66.06785        41.98196         1.65636
C         67.18739        44.19358         0.88621
C         65.99453        43.46320         1.35590
C         67.26959        45.66347         1.02495
C         66.09412        46.36678         1.18539
C         67.34601        48.51262         0.68876
C         66.05503        47.81130         1.06769
C         67.33433        49.98999         1.01391
C         66.13996        50.69310         0.90320
C         67.34059        52.81181         1.22622
C         66.13173        52.11805         0.99349
C         67.34060        54.24665         1.70288
C         66.04707        54.95658         1.28338
C         67.70003        57.36750         1.85736
C         65.87182        56.26642         1.64402
C         67.51141        58.64528         1.40786
C         66.19643        59.37721         1.72454
C         67.37826        61.50381         0.86706
C         66.20028        60.80484         1.19542
C         67.33262        62.88824         0.55744
C         66.18291        63.62570         0.93238
C         67.22847        65.69708        -0.09707
C         66.22389        65.10881         0.82741
C         67.17073        67.15309        -0.38001
C         65.88224        67.95446        -0.02661
C         66.68546        69.75395        -1.50519
C         65.68630        69.20383        -0.76587
C         69.89748        31.60420        -1.63564
C         69.78341        32.83564        -0.84448
C         68.58105        33.68468        -0.87767
C         69.84444        35.60235         0.04137
C         68.60359        34.94990        -0.26808
C         69.89383        37.04458         0.56077
C         68.51844        37.69504         0.70524
C         70.16556        40.09269         0.55854
C         68.47158        38.94659         1.25153
C         69.77349        41.41763         0.30079
C         68.50388        41.97659         0.79194
C         69.63520        44.22710         0.25535
C         68.40303        43.44081         0.51335
C         69.68796        45.63737         0.56707
C         68.55048        46.32740         0.93446
C         69.84958        48.51693         1.12039
C         68.53858        47.78685         1.34948
C         69.80991        49.98350         0.92092
C         68.57388        50.69121         1.04327
C         69.79290        52.83793         0.89121
C         68.57165        52.11631         1.11428
C         69.76935        54.29265         0.87387
C         68.63549        55.00415         1.30192
C         69.94590        57.18173         0.72262
C         68.80667        56.45694         1.50475
C         69.76422        58.59949         0.35447
C         68.62914        59.30040         0.76097
C         69.75591        61.43651        -0.10445
C         68.63621        60.76387         0.69000
C         69.54633        62.83186        -0.53712
C         68.43277        63.53833        -0.15146
C         69.26611        65.49707        -1.48049
C         68.27733        64.93493        -0.56808
C         69.00560        66.82274        -2.07227
C         68.02208        67.71193        -1.43828
C         68.92954        69.68153        -2.65811
C         67.89062        69.03497        -1.84808
C         68.89527        71.07384        -2.89464
C         72.34021        31.68310        -1.55285
C         71.10318        31.02048        -1.86931
C         72.36406        32.91882        -0.98624
C         71.14300        33.54911        -0.47313
C         72.28554        35.79949        -0.20212
C         71.06985        34.99102        -0.19932
C         72.21684        37.14149        -0.30219
C         70.85714        37.80784        -0.40399
C         71.66578        40.05623        -1.28840
C         70.95623        39.33067        -0.31504
C         71.60826        41.45272        -1.30939
C         70.65366        42.16135        -0.55013
C         71.69912        44.44644        -1.03031
C         70.65498        43.61198        -0.45145
C         71.86186        45.72414        -0.63013
C         71.08817        46.24010         0.56477
C         72.19634        48.57316         0.17424
C         71.10234        47.76312         0.73282
C         72.16048        49.92911         0.21254
C         70.98704        50.67947         0.61320
C         72.12322        52.85065         0.12848
C         70.96476        52.12280         0.55535
C         72.07235        54.20197        -0.06039
C         70.91531        54.96725         0.28695
C         71.74649        56.98352        -0.95367
C         70.87690        56.34550        -0.01888
C         71.68434        58.33324        -1.19232
C         70.72001        59.19574        -0.55922
C         71.28324        61.14410        -2.04171
C         70.63919        60.56002        -0.88503
C         71.27632        62.47912        -2.27265
C         70.71715        63.45292        -1.25386
C         71.46599        65.46086        -2.56596
C         70.41186        64.81127        -1.83308
C         71.36831        66.74091        -3.01775
C         70.10549        67.47862        -2.93444
C         71.10994        69.62520        -3.75797
C         70.06190        68.95191        -3.10587
C         71.04961        70.99709        -3.98548
C         69.93415        71.72180        -3.55289
O         61.88189        52.91401         2.10848
O         44.43616        49.49015         1.49987
O         66.35271        34.80822         0.64531
O         66.06886        65.84403         2.08574
O         63.67446        61.01109        -0.64958
O         50.89324        56.91617        -1.04448
O         68.95476        66.80298        -3.53946
O         67.06259        67.96991         0.82480
O         66.69460        56.79383         2.65096
O         70.03469        56.90092         2.16337
O         67.40383        43.74774        -0.54910
O         54.17548        59.21553         2.22994
O         55.69819        61.24023        -0.34603
O         64.04229        64.49422         2.94254
O         55.55616        52.44018        -0.51148
O         69.82279        61.31634         1.35746
O         54.75636        42.52131        -1.74852
O         62.11743        40.30250         2.22485
O         64.75393        56.95596        -0.42774
O         53.52514        47.05179         2.56305
O         67.39754        48.47657        -0.72774
O         69.65729        39.50751         1.72254
O         58.33537        63.56087         0.25589
O         59.87627        61.86344         3.02334
O         70.39341        32.73799         0.47300
O         52.52998        53.60373        -0.57466
O         60.35182        54.66198        -1.06484
O         58.76658        51.68124         2.55305
O         66.43785        39.25464         2.45223
O         70.83928        48.12751         2.14587
O         57.98257        45.95302         2.63464
O         61.47638        36.93013         0.79668
O         64.13392        46.20126         2.61274
O         51.02515        51.69847         2.36487
O         48.04651        47.66128         2.68730
O         53.47981        55.70626         2.44036
O         50.48190        48.39601         2.64175
O         47.69672        53.51573        -1.35321
O         56.30599        41.50293         1.53891
O         43.08563        53.90327        -2.27901
O         70.52513        37.01969         1.85318
H         69.94064        36.54060         2.47569
O         63.55519        47.60051        -0.73776
H         64.04094        48.38008        -1.13516
O         65.05226        49.79678        -0.99493
H         65.95690        49.34710        -1.11679
O         62.35364        48.40430         2.63881
H         61.62725        48.94803         3.00903
O         61.19260        59.78864        -0.94089
H         62.04596        60.24416        -1.14852
O         49.85778        49.87719        -0.61274
H         49.78812        50.75033        -1.05604
O         66.08678        59.49389         3.16565
H         66.87923        59.96431         3.49944
O         67.36283        54.16317         3.15494
H         67.29223        55.08189         3.50244
O         48.42753        51.03707         2.58192
H         48.42316        50.13517         2.97729
O         60.98872        47.92631        -0.77338
H         61.87655        47.66371        -1.13469
O         45.94336        46.23226         2.08992
H         46.70320        46.71954         2.55996
O         62.76577        53.93517        -1.35539
H         61.92623        54.05288        -1.85957
O         66.07143        41.89906         3.11537
H         66.04646        40.93814         3.34389
O         63.40456        62.43434        -0.86469
H         63.63616        62.52990        -1.82081
O         62.60707        62.44700         3.50368
H         62.94587        63.24672         3.96905
O         71.76901        63.66454        -0.25683
H         71.82107        62.85724         0.29864
O         68.27067        47.83049         2.77181
H         69.13395        47.73616         3.23317
O         71.77389        45.70070         1.73437
H         71.54751        46.29168         2.48845
O         43.21017        54.90570         1.19322
H         43.84608        55.33326         1.80475
O         70.32328        37.54392        -1.73326
H         70.93165        37.93782        -2.39268
H         37.94661        48.97962        -2.69416
H         35.98820        50.19616        -3.55156
H         37.95412        53.96488        -2.85082
H         35.98973        52.69768        -3.63290
H         39.39004        48.07205        -1.85004
H         39.23774        54.85304        -1.68823
H         41.34265        46.90142        -1.02755
H         41.10224        56.09088        -0.74763
H         44.87208        44.75632         0.03940
H         43.00095        45.97633        -0.84824
H         44.93421        58.37650        -0.40125
H         42.83738        57.18308        -0.47562
H         46.60941        44.10948        -0.68211
H         46.54887        59.30304        -0.18983
H         48.74686        43.00869        -1.01393
H         48.61520        60.55249        -0.00506
H         52.45867        40.99187        -1.57894
H         50.34080        42.09507        -1.14929
H         52.60565        62.57513        -0.38183
H         50.45541        61.38713        -0.61538
H         54.07790        39.75817        -1.14654
H         54.05949        63.54986         1.41518
H         56.09318        38.45551        -0.83991
H         56.17830        64.69338         1.76514
H         59.85106        36.45869        -1.44313
H         57.82221        37.79630        -1.51679
H         60.06034        66.77762         2.39055
H         57.86740        65.64716         2.31067
H         61.58768        35.61587        -1.72078
H         61.31219        67.41861         0.75132
H         63.77611        34.65276        -2.20367
H         63.24820        68.63523        -0.11855
H         67.52711        32.39327        -2.29445
H         65.48018        33.68876        -2.38304
H         66.49918        70.72612        -1.98067
H         64.72327        69.72787        -0.69584
H         68.98778        31.13264        -2.03312
H         68.04482        71.67381        -2.54545
H         73.27865        31.21753        -1.88606
H         71.14995        30.06970        -2.41915
H         73.31623        33.46425        -0.91729
H         73.26380        35.29940        -0.15636
H         73.12896        37.75502        -0.33932
H         72.32713        39.53056        -1.99418
H         72.27647        42.00087        -1.98686
H         72.32889        44.03505        -1.83253
H         72.64631        46.34339        -1.08717
H         73.08570        48.07141        -0.23171
H         73.03847        50.47362        -0.15898
H         73.05846        52.32311        -0.09504
H         72.96568        54.72671        -0.42476
H         72.48806        56.38185        -1.49718
H         72.39933        58.77577        -1.89879
H         71.76796        60.47656        -2.76921
H         71.77088        62.87708        -3.17085
H         72.42557        64.93217        -2.65547
H         72.26303        67.24288        -3.41150
H         71.98349        69.06414        -4.11710
H         71.87172        71.50441        -4.50832
H         69.88046        72.80555        -3.72520
