         429
 CSIRO Nanostructure Databank - Neutral Graphene Oxide Data Set
C          1.37251         5.16724        -4.19536
C          0.17088         5.71688        -3.82999
C          1.25965         7.61113        -2.71617
C          0.10534         6.94185        -3.11120
C          1.23982         8.87236        -1.98534
C          0.03124         9.45568        -1.55322
C          1.15730        11.37292        -0.53111
C          0.00723        10.63768        -0.79139
C          1.14065        12.62927         0.18524
C         -0.08991        13.25362         0.53209
C          1.06515        15.21478         1.40070
C         -0.12853        14.50969         1.09710
C          1.03814        16.56740         1.91438
C         -0.17731        17.26704         2.12482
C          1.02142        19.29588         2.77238
C         -0.18339        18.59572         2.49862
C          1.02223        20.74554         3.01869
C         -0.17652        21.48607         2.96889
C          1.05460        23.58748         3.05585
C         -0.15654        22.87165         3.01458
C          1.06508        25.02967         2.81375
C         -0.13697        25.73121         2.54059
C          1.11445        27.67846         1.80212
C         -0.11075        27.03708         2.09741
C          1.13733        28.96631         1.14537
C         -0.04592        29.70901         0.92431
C          1.15689        31.30999        -0.44936
C         -0.03062        30.86531         0.16151
C          1.11337        32.39265        -1.45961
C          0.02525        33.40030        -1.47739
C          1.19044        34.72581        -3.26660
C          0.06594        34.47102        -2.28653
C          1.38089        36.20442        -3.52240
C          3.81654         5.37013        -4.34391
C          2.61221         5.81762        -3.85013
C          3.71106         7.61403        -2.55701
C          2.54331         7.03288        -3.03251
C          3.70593         8.88064        -1.87949
C          2.46618         9.51854        -1.65526
C          3.68018        11.42286        -0.51621
C          2.43477        10.96310        -1.22366
C          3.63506        12.64178         0.21432
C          2.35361        13.28467         0.51948
C          3.52484        15.24989         1.50315
C          2.31010        14.56055         1.16360
C          3.50417        16.57056         1.93660
C          2.25779        17.25523         2.18060
C          3.50254        19.17690         3.26479
C          2.23338        18.59793         2.67242
C          3.46311        20.69929         3.64841
C          2.23626        21.44469         3.18726
C          3.54156        23.57678         3.27092
C          2.27670        22.86425         3.18459
C          3.52336        25.09797         3.30357
C          2.28732        25.70930         2.69478
C          3.59469        27.59815         1.74177
C          2.33511        27.00386         2.10638
C          3.60296        28.80171         0.98938
C          2.37180        29.47810         0.66067
C          3.63366        31.15010        -0.68153
C          2.37742        30.63984        -0.17213
C          3.67393        32.23540        -1.57378
C          2.42607        32.81797        -2.08617
C          3.69123        34.58494        -3.25038
C          2.49342        34.09909        -2.80785
C          3.67351        35.70107        -4.27814
C          2.55455        36.67393        -3.96054
C          6.36435         5.38304        -4.23486
C          5.07816         6.15638        -4.07731
C          6.22117         7.55967        -2.32983
C          4.97580         6.80659        -2.69734
C          6.18252         8.81106        -1.73336
C          4.94303         9.49586        -1.47642
C          6.10727        11.32240        -0.22873
C          4.91152        10.75329        -0.74860
C          6.09395        12.59343         0.42630
C          4.83388        13.23625         0.64522
C          6.09405        15.29074         1.49228
C          4.80968        14.52764         1.36142
C          6.05564        16.74406         1.76340
C          4.74494        17.38541         1.91007
C          6.00130        19.41586         2.80235
C          4.71774        18.79863         2.43253
C          5.95787        20.75815         3.29184
C          4.75671        21.44499         3.35787
C          6.04049        23.59879         3.40143
C          4.75174        22.89435         3.38390
C          6.04545        25.08137         3.28287
C          4.79616        25.70848         2.77318
C          6.14183        27.47376         1.70880
C          4.82343        26.90307         2.10499
C          6.11655        28.74444         0.92052
C          4.83109        29.40238         0.57421
C          6.12551        31.13039        -0.65061
C          4.85967        30.55579        -0.21836
C          6.13335        32.23798        -1.55394
C          4.91170        32.81760        -1.99451
C          6.17019        34.55233        -3.22675
C          4.93931        33.97102        -2.84148
C          6.18840        35.76851        -4.03882
C          5.00728        36.35167        -4.46749
C          8.79701         5.22262        -3.91332
C          7.52090         5.75984        -3.57487
C          8.78220         7.41490        -2.02772
C          7.45426         6.78747        -2.50119
C          8.73494         8.76808        -1.45415
C          7.47155         9.48627        -1.44586
C          8.62712        11.16323         0.10874
C          7.40807        10.78662        -0.63874
C          8.57661        12.57145         0.77119
C          7.31267        13.27562         0.70202
C          8.59550        15.36804         1.28773
C          7.31441        14.77199         0.75786
C          8.53345        16.78334         1.67120
C          7.22795        17.43421         1.97946
C          8.44486        19.41732         2.94617
C          7.21195        18.77413         2.53097
C          8.47658        20.71094         3.42529
C          7.20960        21.43317         3.77709
C          8.52386        23.57380         3.51764
C          7.23286        22.90979         3.49061
C          8.57837        24.98108         3.47304
C          7.35599        25.82946         3.26190
C          8.55851        27.76898         2.06484
C          7.40556        27.09146         2.43005
C          8.58104        28.85521         1.10401
C          7.31853        29.65485         0.97645
C          8.58918        31.12342        -0.61761
C          7.34000        30.61867        -0.17236
C          8.57957        32.25474        -1.47149
C          7.37740        32.81215        -1.95067
C          8.64185        34.55806        -3.19397
C          7.40034        33.98636        -2.79108
C          8.66498        35.74500        -4.02380
C          7.44486        36.34248        -4.39347
C         11.26788         5.36816        -4.04954
C         10.01761         5.84506        -3.53821
C         11.19499         7.80793        -2.49616
C          9.99381         7.00901        -2.72005
C         11.18023         8.81956        -1.42670
C          9.95210         9.39999        -1.06540
C         11.09807        11.29551         0.09793
C          9.93426        10.63571        -0.29366
C         11.06976        12.63465         0.65558
C          9.85458        13.28944         0.88047
C         11.04435        15.30963         1.70630
C          9.80721        14.68959         1.24968
C         11.00704        16.54285         2.33381
C          9.79337        17.36502         2.28733
C         10.86440        19.18673         3.77493
C          9.63781        18.57354         3.14264
C         10.92822        20.66106         3.77193
C          9.73336        21.38752         3.66100
C         11.01854        23.49054         3.58669
C          9.75152        22.83146         3.63116
C         11.05863        24.90578         3.55680
C          9.84056        25.56737         3.67375
C         11.01756        27.47825         1.80431
C          9.88953        27.43623         2.56476
C         10.95751        28.28389         0.52093
C          9.75601        29.21640         0.48859
C         11.06865        30.91112        -0.72876
C          9.81853        30.43634        -0.28563
C         11.12914        32.25807        -1.33217
C          9.84091        32.94543        -1.73830
C         11.10828        34.45901        -3.25209
C          9.87434        33.99945        -2.76450
C         11.13808        35.63029        -4.11946
C          9.90805        36.28193        -4.42120
C         13.72029         5.57050        -4.28832
C         12.49385         5.98375        -3.75152
C         13.76120         7.54861        -2.16131
C         12.50592         7.24659        -2.96087
C         13.73428         8.91509        -1.48680
C         12.44435         9.31050        -0.88135
C         13.64277        11.42607        -0.02098
C         12.40252        10.63501        -0.08780
C         13.58012        12.71003         0.59995
C         12.32532        13.31485         0.94313
C         13.53246        15.21946         1.92770
C         12.30518        14.59531         1.54858
C         13.56399        16.62602         2.50959
C         12.20312        17.06812         3.03145
C         13.40939        19.11621         4.07106
C         12.13502        18.38329         3.75508
C         13.42116        20.58676         3.91195
C         12.20600        21.31751         3.76404
C         13.50252        23.40452         3.56951
C         12.25113        22.73800         3.63876
C         13.57626        24.88582         3.38673
C         12.31063        25.76491         3.36566
C         13.52508        27.23202         1.54690
C         12.22354        26.55223         1.97649
C         13.47988        28.36343         0.65387
C         12.28724        28.98496         0.26566
C         13.53500        30.80704        -0.90418
C         12.28718        30.20561        -0.49283
C         13.55582        32.02182        -1.67534
C         12.35730        32.69842        -2.00112
C         13.57594        34.26095        -3.44026
C         12.33667        33.79552        -2.89561
C         13.57473        35.23433        -4.59825
C         12.34313        36.08370        -4.64986
C         16.12606         6.00862        -4.74014
C         14.92958         6.30325        -4.02774
C         16.21493         7.92401        -2.65140
C         14.95927         7.30052        -3.03090
C         16.19099         9.11589        -1.69223
C         14.87825         9.63609        -1.22397
C         16.08940        11.63275        -0.28637
C         14.86055        10.90311        -0.49543
C         16.06045        12.84693         0.45456
C         14.80225        13.38242         0.89174
C         16.01983        15.22272         2.05133
C         14.74543        14.60765         1.62041
C         16.02864        16.36372         3.01652
C         14.68323        16.85582         3.58294
C         15.95720        19.14419         3.93706
C         14.70660        18.35015         3.99074
C         15.90674        20.53082         4.06475
C         14.66081        21.25321         3.92542
C         15.97526        23.27077         3.32190
C         14.70067        22.66359         3.65215
C         15.94128        24.46945         2.40717
C         14.80726        25.42129         2.72391
C         16.00639        27.12663         1.33933
C         14.74557        26.64053         1.86553
C         16.03672        28.27554         0.53684
C         14.74789        28.75719        -0.08178
C         15.98063        30.78371        -0.96090
C         14.76081        30.18798        -0.57430
C         16.00916        31.93767        -1.76691
C         14.79311        32.56300        -2.13856
C         16.03369        34.44091        -3.26181
C         14.76983        33.72077        -2.98937
C         16.04411        35.57260        -4.21632
C         14.84718        36.01894        -4.74679
C         18.49081         6.47165        -5.30797
C         17.31734         6.73396        -4.52622
C         18.54138         8.52482        -3.32749
C         17.38246         7.73480        -3.51330
C         18.56017         9.63100        -2.40272
C         17.36811        10.00716        -1.68155
C         18.59484        11.82936        -0.58419
C         17.31676        11.15638        -0.88896
C         18.57230        13.12315         0.21194
C         17.26081        13.66004         0.64019
C         18.37654        15.84924         1.26380
C         17.22899        14.87100         1.28151
C         18.45979        16.77189         2.47413
C         17.24740        17.21176         3.09926
C         18.45174        19.11571         4.15473
C         17.19875        18.44760         3.74698
C         18.42146        20.57982         4.46414
C         17.11466        21.37929         4.45062
C         18.42962        23.34218         3.40372
C         17.17448        22.66349         3.64040
C         18.45762        24.58736         2.77699
C         17.24887        25.22106         2.32265
C         18.52993        26.92654         1.05098
C         17.24207        26.45536         1.68619
C         18.51288        28.34242         0.52985
C         17.27754        28.91461         0.20474
C         18.58032        30.84489        -0.87715
C         17.25483        30.25486        -0.40406
C         18.57454        31.87572        -1.92553
C         17.26520        32.31837        -2.51882
C         18.56663        34.23358        -3.56574
C         17.32571        33.77559        -2.91269
C         18.53131        35.42783        -4.34477
C         17.30319        36.10282        -4.60490
C         19.63750         7.19468        -5.10500
C         20.85291         9.03469        -3.98956
C         19.68781         8.24592        -4.13889
C         20.87689        10.08885        -3.09999
C         19.74416        10.42164        -2.30601
C         20.91782        12.34028        -1.21780
C         19.78845        11.53689        -1.39401
C         20.90946        13.51783        -0.45225
C         19.75277        14.00897         0.16998
C         20.85209        16.02554         1.10696
C         19.70454        15.25911         0.85493
C         20.83276        17.10295         1.99865
C         19.67178        17.43555         2.72768
C         20.97307        19.21896         4.03268
C         19.74949        18.33347         3.95296
C         20.95591        20.52741         4.33074
C         19.71734        21.33725         4.42741
C         20.96735        23.40577         3.50943
C         19.69942        22.76291         3.92713
C         20.98229        24.64767         3.00559
C         19.72629        25.36678         2.71410
C         21.01926        27.18986         1.36917
C         19.75544        26.62373         1.89037
C         21.00010        28.24297         0.52556
C         19.76819        28.91394         0.13247
C         21.00902        30.61068        -1.23910
C         19.81752        30.08160        -0.65315
C         20.99132        31.71904        -2.05041
C         19.75989        32.34621        -2.45959
C         20.93289        33.97402        -4.00300
C         19.76060        33.50427        -3.38001
C         20.91449        35.14972        -4.76784
C         19.74506        35.87804        -4.93356
O         18.38753        19.59915         5.55769
O         16.74374        34.73097        -1.98837
O          9.87479        18.48920         4.58716
O         10.53932        33.31362        -0.48766
O          6.51351        25.83962         4.47875
O          7.59840        10.82062        -2.09019
O         18.86471        11.84335         0.86943
O          6.32188        27.47513         0.22798
O          9.42004        17.66817         0.89203
O         14.04622        18.59847         5.28184
O          9.88825        26.94480         3.86818
O          1.49987        31.88521        -2.79349
O         12.03452        17.12384         4.48303
O         16.31629        15.00981         3.49742
O          5.62603        14.49171         2.61542
O         19.60179        26.70727         3.33300
O          8.09259         6.36657        -1.25158
O         12.48978         9.34292         0.58659
O          4.53585        18.57128         1.01516
O         17.93911        31.27923         0.39233
O         19.73054        22.44453         5.37063
O         14.63390        25.55663         4.16900
O         11.93091         8.34566        -3.71552
O          8.47956        11.31002         1.53395
O         16.49366         7.77532        -1.17739
O          0.84821        34.07923        -4.53498
H          0.85696        33.10956        -4.34620
O         14.67127        27.96439        -1.34723
H         13.77269        28.10728        -1.71884
O          3.70451        18.43753         4.51559
H          3.39759        17.51487         4.38714
O          3.47080        25.47187         4.72683
H          4.39127        25.47375         5.07244
O          4.88578         5.69911        -1.75017
H          4.99188         6.05829        -0.84469
O         12.01471        25.50443         0.95849
H         12.89014        25.14038         0.70288
O         19.85685        17.42483         5.07889
H         19.55749        17.92375         5.87212
O         18.68661        26.07231        -0.14327
H         17.92630        26.25645        -0.73586
O         13.90735        17.53052         1.41737
H         13.35106        17.30936         0.64053
O         16.86644        21.78131         5.82088
H         17.10731        21.01602         6.38936
O         14.41813        16.06830         4.73296
H         13.81452        16.58381         5.31913
O         13.51142        34.37044        -5.81516
H         12.66147        33.88128        -5.77787
O         10.78671        27.38154        -0.61879
H         11.18444        26.51520        -0.35301
O         18.01831        16.77644         0.14909
H         18.79884        17.35289        -0.00050
O         17.15387        31.60610        -3.80484
H         17.08357        30.64602        -3.61863
O          3.32768        35.08042        -5.55935
H          2.42457        34.68662        -5.44841
O         15.66626        23.95667         1.05708
H         16.46172        23.47150         0.75182
O         12.39422        26.72648         4.41409
H         13.32190        26.71522         4.75088
O          7.14234        21.32954         5.24803
H          6.27301        21.68999         5.52854
O         13.79995         6.57376        -1.07604
H         14.66913         6.68711        -0.62616
O          5.13507         7.22979        -5.07003
H          5.11044         6.82214        -5.96071
O          2.42654        11.73684        -2.49717
H          1.64241        11.43700        -3.00560
O          7.16161        15.28686        -0.60962
H          7.97879        15.08405        -1.11139
O          7.15502        30.44953         2.19516
H          7.90916        31.07352         2.25334
O          3.37654        20.81073         5.10191
H          3.57047        19.91819         5.47616
H          1.40755         4.23216        -4.77275
H         -0.76848         5.21792        -4.10753
H         -0.88677         7.34709        -2.86983
H         -0.92291         8.94901        -1.74899
H         -0.96232        10.96258        -0.38868
H         -1.03989        12.75327         0.30257
H         -1.10673        14.96521         1.29945
H         -1.13964        16.76700         1.95378
H         -1.15098        19.10331         2.60280
H         -1.14599        20.97835         2.88672
H         -1.11554        23.40285         2.96930
H         -1.11126        25.24732         2.68394
H         -1.06383        27.54663         1.90597
H         -1.00315        29.36619         1.33744
H         -0.97398        31.39767        -0.02141
H         -0.81771        33.27550        -0.78117
H         -0.76430        35.19421        -2.26893
H          0.53244        36.88123        -3.33637
H          3.84232         4.52806        -5.05353
H          2.69663        37.74616        -4.16507
H          6.43120         4.64865        -5.05471
H          5.05198        37.26286        -5.08396
H          8.83694         4.38033        -4.62037
H          7.45571        37.25529        -5.00755
H         11.26356         4.47252        -4.68829
H          9.92629        37.18926        -5.04301
H         13.75851         4.70875        -4.97017
H         12.34677        36.97328        -5.29798
H         16.11353         5.21253        -5.49856
H         14.84796        36.86020        -5.45735
H         18.45454         5.68239        -6.07224
H         17.32198        36.98232        -5.26675
H         20.53593         6.99019        -5.70532
H         21.73730         8.80923        -4.60244
H         21.79359        10.68674        -3.01702
H         21.85208        12.08912        -1.73763
H         21.83332        14.11158        -0.42684
H         21.82239        15.71493         0.69514
H         21.77432        17.62709         2.21077
H         21.94387        18.70057         4.02150
H         21.90854        21.04595         4.51352
H         21.91323        22.89686         3.73938
H         21.94060        25.14438         2.80060
H         21.98088        26.78700         1.71650
H         21.95609        28.65688         0.17809
H         21.97590        30.13296        -1.03101
H         21.94446        32.09918        -2.44145
H         21.88140        33.43210        -3.88963
H         21.84478        35.49834        -5.23781
H         19.74364        36.79600        -5.53842
