         424
 CSIRO Nanostructure Databank - Neutral Graphene Oxide Data Set
C          1.29321         2.01736        -0.95695
C          1.25520         3.41511        -0.99417
C          2.49510         1.34528        -0.77901
C          2.43372         4.18328        -0.85219
C          1.21448         6.36157        -1.07388
C          1.20794         7.73983        -1.11175
C          2.41780         5.63145        -0.89581
C          2.41452         8.48999        -1.01433
C          1.21394        10.68663        -1.10356
C          1.22899        12.06317        -1.12265
C          2.41784         9.93284        -1.08009
C          2.45588        12.79293        -1.09444
C          1.28219        15.02067        -1.08023
C          1.27331        16.34671        -0.78791
C          2.47269        14.21704        -0.96039
C          2.43828        17.00587        -0.10694
C          2.60534        18.46658        -0.47051
C          3.70707         2.07220        -0.63196
C          3.67420         3.50639        -0.66928
C          4.93589         1.40102        -0.45288
C          4.88777         4.24770        -0.49311
C          3.63646         6.35752        -0.74084
C          3.63416         7.79303        -0.84005
C          4.85389         5.66195        -0.50677
C          4.88605         8.51449        -0.88642
C          3.66191        10.63271        -1.13993
C          3.67633        12.06626        -1.12321
C          4.88110         9.90281        -1.15668
C          4.93935        12.77309        -1.11107
C          3.71929        14.89099        -0.73521
C          3.73278        16.25527        -0.34023
C          4.95288        14.19949        -0.90207
C          4.95492        16.93165        -0.16514
C          3.76384        19.09132        -0.22557
C          4.88363        18.31917         0.45127
C          6.15016         2.11357        -0.31821
C          6.13053         3.54783        -0.32240
C          7.38254         1.42627        -0.19482
C          7.36374         4.27151        -0.22922
C          6.06559         6.44247        -0.07375
C          6.11093         7.83461        -0.64093
C          7.35986         5.69033        -0.23042
C          7.35262         8.53134        -0.67240
C          6.15879        10.59212        -1.56113
C          6.13517        12.08198        -1.30434
C          7.39858         9.91131        -1.01137
C          7.38552        12.83175        -1.45599
C          6.19079        14.93418        -0.87098
C          6.16980        16.32662        -0.52005
C          7.40364        14.27489        -1.19017
C          7.39325        17.19964        -0.73114
C          6.20570        19.02410         0.50711
C          7.38977        18.44403         0.15050
C          8.61034         2.11905        -0.12859
C          8.60578         3.56213        -0.16822
C          9.83785         1.42719        -0.01992
C          9.83241         4.27138        -0.12854
C          8.57339         6.40923        -0.22142
C          8.57698         7.84076        -0.37836
C          9.81757         5.70730        -0.16102
C          9.80948         8.54364        -0.40251
C          8.63087        10.59241        -1.00864
C          8.69296        12.02951        -1.36211
C          9.83576         9.92802        -0.70263
C          9.94498        12.75565        -1.06161
C          8.70009        14.95839        -0.98808
C          8.70292        16.43203        -0.62678
C          9.94334        14.16334        -1.20201
C          9.93301        17.28865        -0.53369
C          8.62670        19.06182         0.53858
C          9.87041        18.50080         0.25334
C         11.07085         2.11764         0.03667
C         11.07197         3.55432        -0.03904
C         12.30420         1.43489         0.15980
C         12.31099         4.24606        -0.02926
C         11.03281         6.43760        -0.13249
C         11.05104         7.84218        -0.18428
C         12.30612         5.70268        -0.20706
C         12.28178         8.58530        -0.02842
C         11.16861        10.57558        -1.01888
C         11.15419        12.07340        -0.88426
C         12.34144         9.93230        -0.31829
C         12.37647        12.77870        -0.70027
C         11.19824        14.75745        -1.35365
C         11.17542        16.88898        -0.96460
C         12.40597        14.18711        -0.90218
C         12.41733        17.25396        -0.34433
C         11.10775        19.12417         0.61209
C         12.34958        18.52672         0.37324
C         13.52848         2.13169         0.26224
C         13.52959         3.57137         0.17273
C         14.75295         1.44845         0.45168
C         14.75820         4.30176         0.41331
C         13.58617         6.45874         0.07124
C         13.47473         7.88517         0.57830
C         14.76217         5.69913         0.47618
C         14.79039         8.60010         0.36591
C         13.57580        10.67764        -0.19810
C         13.59988        12.07615        -0.41740
C         14.79941         9.99043         0.06150
C         14.82898        12.81346        -0.36828
C         13.59854        14.98302        -0.63740
C         13.54971        16.42348        -0.33814
C         14.79578        14.24940        -0.45328
C         14.74557        16.97120         0.43409
C         13.56897        19.15875         0.74562
C         14.77882        18.47785         0.62009
C         15.97502         2.14472         0.62279
C         15.97373         3.57949         0.66496
C         17.19296         1.44189         0.77077
C         17.20171         4.30231         0.82546
C         15.93245         6.46537         1.03655
C         15.97802         7.90625         0.57176
C         17.22215         5.71815         0.84248
C         17.23481         8.57553         0.42096
C         16.04713        10.68588        -0.03145
C         16.05923        12.10684        -0.21558
C         17.25746         9.94740         0.09889
C         17.34197        12.79892        -0.18367
C         16.09020        14.96290        -0.42795
C         16.06093        16.44518        -0.09093
C         17.34881        14.24800        -0.21735
C         17.30015        17.08454         0.35588
C         16.00637        19.13019         0.83288
C         17.25745        18.47126         0.73529
C         18.43087         2.11983         0.92143
C         18.43918         3.58402         0.88255
C         19.61099         1.42221         1.15732
C         19.64738         4.28714         0.91766
C         18.44566         6.43145         0.80688
C         18.47150         7.84914         0.61687
C         19.68020         5.70420         0.88460
C         19.71820         8.54575         0.62550
C         18.56432        10.60288        -0.26205
C         18.53650        12.10060        -0.11280
C         19.76942         9.93684         0.36122
C         19.85839        12.80883        -0.29313
C         18.53458        14.96161         0.02060
C         18.51064        16.38663         0.28156
C         19.79392        14.27059         0.08680
C         19.73569        17.08180         0.55262
C         18.47340        19.17083         0.89334
C         19.71139        18.51355         0.76981
C         20.86315         2.16825         1.52109
C         20.92487         3.50355         0.77997
C         22.14282         1.40419         1.30189
C         22.15743         4.27603         1.16829
C         20.92161         6.41540         0.99237
C         20.93545         7.82721         0.91769
C         22.15445         5.69298         1.20666
C         22.16905         8.54167         1.06868
C         20.98007        10.65731         0.53286
C         21.03165        12.07421         0.33966
C         22.17880         9.95975         0.91800
C         22.21896        12.77082         0.57211
C         20.95900        14.96118         0.35883
C         20.94926        16.38084         0.58071
C         22.29261        14.25615         0.27076
C         22.18953        17.10699         0.76942
C         20.93376        19.22541         0.83988
C         22.17026        18.55996         0.80088
C         23.33799         2.08023         1.26016
C         23.34375         3.55218         1.33297
C         24.59583         1.38599         1.15964
C         24.55294         4.24830         1.56042
C         23.36839         6.39908         1.44520
C         23.37933         7.83932         1.36944
C         24.57830         5.65739         1.64504
C         24.58659         8.57023         1.57323
C         23.39618        10.68045         1.10405
C         23.40973        12.09609         0.95422
C         24.58398         9.96715         1.48449
C         24.64283        12.85270         1.16113
C         23.30697        14.93739         1.18868
C         23.38192        16.42355         0.94005
C         24.62663        14.22832         1.17027
C         24.63567        17.12918         1.03720
C         23.39743        19.26241         0.84549
C         24.63157        18.59024         0.91414
C         25.80799         2.03978         1.32994
C         25.79367         3.47432         1.70541
C         27.06227         1.39213         1.16239
C         27.09282         4.24683         1.60544
C         25.84471         6.36404         1.67370
C         25.83377         7.82842         2.03938
C         27.02683         5.70185         1.45064
C         27.12617         8.53083         1.68971
C         25.80185        10.73970         1.79578
C         25.88284        12.15803         1.46270
C         27.16122         9.97205         1.90382
C         27.11215        12.83299         1.45299
C         25.84107        14.99158         1.61753
C         25.81615        16.44838         1.23369
C         27.12828        14.26843         1.27821
C         27.13674        17.16121         1.33985
C         25.85479        19.29044         0.88652
C         27.09977        18.62115         0.94336
C         28.29378         2.07372         1.16587
C         28.33777         3.52120         1.29034
C         29.50426         1.38549         0.87885
C         29.52229         4.22191         1.20017
C         28.23391         6.40286         0.88001
C         28.29681         7.85727         1.28893
C         29.54401         5.65953         1.08985
C         29.52712         8.51328         1.20075
C         28.37748        10.72750         1.59895
C         28.37070        12.10955         1.44047
C         29.62145         9.94752         1.50735
C         29.59062        12.82686         1.08815
C         28.28500        14.94124         0.94719
C         28.18853        16.39929         0.53195
C         29.53989        14.22850         0.80793
C         29.50174        17.13126         0.51683
C         28.30714        19.26404         0.70208
C         29.54344        18.53037         0.54753
C         30.74437         2.04140         0.85998
C         30.82184         3.47187         1.34853
C         31.92392         1.37860         0.49665
C         32.01781         4.22749         0.83034
C         30.74006         6.32762         0.90428
C         30.69867         7.80368         0.57107
C         31.99084         5.59329         0.76479
C         32.02642         8.52466         0.67969
C         30.89410        10.69374         1.19089
C         30.81204        12.13810         0.91108
C         32.06354         9.93408         0.69810
C         31.99044        12.81084         0.49421
C         30.71870        14.90557         0.41377
C         30.67084        16.35314         0.11565
C         31.95603        14.22055         0.29268
C         31.97077        17.10613        -0.08927
C         30.78831        19.22688         0.40345
C         31.99582        18.56051         0.17710
C         33.17997         2.02961         0.37206
C         33.32934         3.46809         0.82417
C         34.26389         1.35564        -0.16958
C         34.43357         4.19300         0.09504
C         33.30642         6.34282         0.75621
C         33.21592         7.80784         0.39577
C         34.43031         5.60682         0.06792
C         34.37657         8.49666         0.02436
C         33.24931        10.64400         0.42606
C         33.23825        12.09323         0.35221
C         34.42759         9.91896         0.05895
C         34.42615        12.78145         0.09001
C         33.19366        14.93060         0.06082
C         33.22635        16.34625        -0.00356
C         34.42046        14.20698        -0.03279
C         34.44648        17.04564        -0.01665
C         33.25183        19.21267         0.15656
C         34.46607        18.50591        -0.00134
C         35.46918         2.02491        -0.58732
C         35.51860         3.48390        -0.45207
C         36.48492         1.35579        -1.22444
C         36.68870         4.17993        -0.83145
C         35.54329         6.30482        -0.40338
C         35.49088         7.77502        -0.68197
C         36.73962         5.60665        -0.73183
C         36.82311         8.46935        -0.62269
C         35.65153        10.59792        -0.18419
C         35.74372        12.04584         0.21473
C         36.84766         9.87888        -0.49577
C         36.91043        12.72995        -0.43318
C         35.63999        14.91790        -0.21563
C         35.65716        16.31185        -0.12166
C         36.82872        14.18128        -0.77992
C         36.94016        17.04718        -0.07029
C         35.69180        19.18888        -0.15356
C         36.93326        18.51313        -0.26488
C         37.57986         2.09355        -1.94808
C         37.81472         3.47304        -1.37998
C         38.86772         1.32747        -2.11664
C         39.02737         4.10859        -1.52357
C         37.96127         6.30189        -0.92325
C         38.02218         7.73266        -0.84105
C         39.23176         5.48426        -0.93422
C         39.25405         8.42854        -1.01013
C         38.08061        10.58066        -0.71243
C         38.07452        12.02426        -0.73850
C         39.26830         9.85308        -1.02439
C         39.28958        12.72750        -1.09380
C         38.15727        14.86234        -0.65070
C         38.22960        16.28887        -0.34360
C         39.32521        14.16621        -1.00409
C         39.41333        17.04332        -0.76825
C         38.14260        19.16657        -0.49754
C         39.36948        18.46527        -0.75641
C         40.04218         1.97148        -2.28303
C         40.15557         3.41382        -2.09896
C         41.28934         4.12631        -2.42810
C         40.41365         6.22699        -1.50855
C         40.56476         7.66798        -1.05020
C         41.37662         5.54219        -2.18838
C         41.64079         8.44755        -1.75042
C         40.46210        10.56710        -1.39077
C         40.47473        12.00261        -1.38814
C         41.59983         9.80291        -1.82680
C         41.67082        12.74407        -1.62528
C         40.55400        14.88107        -1.22730
C         40.57224        16.33986        -1.18484
C         41.70430        14.12639        -1.54520
C         41.71619        17.09288        -1.53784
C         40.54312        19.17568        -1.11030
C         41.69486        18.48879        -1.48376
O         30.58881        10.31407         2.58710
O         16.11521        16.01891        -1.47357
O         13.16093         6.21684        -1.30740
O         26.55516         3.78853         2.90920
O         26.41681        10.42513         3.09092
O         31.15028        16.70937        -1.24608
O         37.78154        16.61336         1.04607
O          8.15805        12.38371        -2.67308
O          8.70501        15.46342         0.46418
O         11.24456        15.97880        -2.01747
O         31.04677         3.38257         2.80056
H         32.00068         3.14481         2.92164
O         27.73059        16.39896        -0.85349
H         28.49504        16.17745        -1.42728
O         20.15527        12.77721        -1.74092
H         19.88592        11.87548        -2.05321
O         15.70719         6.55374         2.51175
H         15.82506         5.65035         2.87784
O         11.37874        10.31633        -2.45482
H         11.44606         9.34453        -2.57318
O         33.75259         3.43186         2.23668
H         33.92425         4.37429         2.49011
O         37.06560         2.29056        -3.32215
H         37.76135         2.76654        -3.82384
O          2.12751        16.96561         1.34202
H          2.04490        16.02039         1.59136
O         39.52678         5.26744         0.49704
H         40.03328         6.06098         0.80470
O         20.76891         2.47940         2.95002
H         20.82960         1.63752         3.44757
O         28.02311         6.39400        -0.57327
H         28.77801         6.90477        -0.96447
O         35.10095         7.85173        -2.12211
H         35.13381         8.80009        -2.37394
O         27.56267        17.10029         2.74343
H         27.12067        17.83481         3.21965
O         22.75705        14.38578        -1.09706
H         22.07134        13.97344        -1.67113
O         30.40462         7.84739        -0.89899
H         31.17240         7.44325        -1.35979
O         14.64997        16.41478         1.78955
H         13.85974        16.80764         2.21754
O          6.24693        10.42724        -3.02787
H          7.00165        10.99615        -3.32111
O         22.81503        14.78037         2.55732
H         23.58258        14.92941         3.15614
O         25.75223         7.81857         3.50526
H         25.88462         8.75354         3.79900
O          5.90038         6.62585         1.40004
H          5.88723         5.73001         1.80053
O         18.74358        10.37136        -1.73779
H         17.88651        10.58996        -2.16507
O         25.76612        15.00441         3.09858
H         26.53394        15.55464         3.39377
O          7.33432        17.66703        -2.11369
H          6.52450        18.20929        -2.21740
O         36.55558        14.22810        -2.26036
H         37.25715        13.69479        -2.69438
O         41.00116         7.56449         0.37330
H         41.05055         8.48023         0.72396
O         21.05614         3.17767        -0.63751
H         21.08582         4.01912        -1.13891
O         36.03965        12.04483         1.67428
H         35.32478        11.53484         2.11270
O          4.51998        18.16125         1.85287
H          3.60428        17.77943         1.88401
O         33.71587         6.33706         2.18274
H         33.02309         6.81323         2.69052
O         13.23647         7.80343         2.01328
H         14.06463         7.45199         2.43056
H          0.35941         1.44906        -1.07083
H          0.28537         3.90913        -1.13861
H          2.52013         0.24667        -0.74922
H          0.25965         5.82987        -1.18088
H          0.24916         8.25659        -1.25102
H          0.24373        10.17259        -1.08241
H          0.27337        12.60459        -1.11392
H          0.36757        14.55637        -1.47715
H          0.35392        16.93553        -0.92336
H          1.75246        18.99858        -0.91990
H          4.95272         0.30120        -0.43883
H          3.89499        20.15970        -0.45631
H          7.38269         0.32642        -0.17655
H          6.22948        19.95464         1.09692
H          9.83277         0.32815         0.02513
H          8.57587        19.99750         1.11609
H         12.30605         0.33605         0.21132
H         11.07730        20.08729         1.14289
H         14.75685         0.34847         0.46949
H         13.55517        20.20434         1.08751
H         17.18106         0.34178         0.77654
H         15.99511        20.20878         1.05231
H         19.58395         0.32470         1.25086
H         18.45161        20.25256         1.09259
H         22.12844         0.30291         1.29104
H         20.91140        20.32123         0.93679
H         24.58442         0.30595         0.94726
H         23.38563        20.36263         0.82920
H         27.06446         0.30965         0.96041
H         25.84232        20.37833         0.71803
H         29.45932         0.31405         0.62775
H         28.31705        20.34925         0.51855
H         31.86346         0.31651         0.20764
H         30.79448        20.31997         0.52830
H         34.15288         0.28929        -0.42301
H         33.28348        20.30828         0.25536
H         36.41643         0.26537        -1.36211
H         35.68383        20.28869        -0.19587
H         38.81003         0.23557        -2.24241
H         38.14839        20.26370        -0.58275
H         40.95977         1.40992        -2.51713
H         42.14815         3.61585        -2.88676
H         42.28199         6.05348        -2.54603
H         42.54480         7.92334        -2.08960
H         42.45634        10.32911        -2.27182
H         42.60582        12.21393        -1.85074
H         42.66084        14.63588        -1.72462
H         42.63800        16.58820        -1.85600
H         40.53276        20.27479        -1.10086
H         42.59883        19.05136        -1.75654
