         424
 CSIRO Nanostructure Databank - Neutral Graphene Oxide Data Set
C          1.41822         3.64830         1.64836
C          0.22302         4.36157         1.26755
C          1.28790         6.47144         2.03045
C          0.15681         5.70981         1.37178
C          1.31577         7.94048         1.68962
C          0.12609         8.66721         1.76745
C          1.27907        10.74528         1.23353
C          0.10262        10.04365         1.54133
C          1.27243        12.18406         1.01109
C          0.05070        12.91572         0.99312
C          1.22793        15.01276         0.59073
C          0.02826        14.27527         0.78441
C          1.22026        16.44045         0.41979
C          0.01079        17.19658         0.46298
C          1.22039        19.29423         0.13351
C          0.01140        18.56361         0.32828
C          1.22808        20.72144        -0.00403
C          0.02851        21.49426         0.06853
C          1.24782        23.57297        -0.36311
C          0.03720        22.85489        -0.09744
C          1.25350        24.96657        -0.61931
C          0.03543        25.74276        -0.58002
C          1.15346        27.67303        -1.69040
C         -0.02353        27.00849        -1.04581
C          1.24069        29.16776        -1.41650
C          0.16089        29.94955        -0.97627
C          1.26859        32.02310        -1.63126
C          0.22261        31.34799        -0.97321
C          1.38719        33.50085        -1.59048
C          0.16264        34.21947        -1.46829
C          1.33520        36.30075        -1.08389
C          0.13081        35.58250        -1.26504
C          1.31174        37.69788        -0.78090
C          3.85796         3.59731         2.23302
C          2.58661         4.32981         1.89369
C          3.79290         6.46492         1.59263
C          2.60706         5.76997         1.82389
C          3.77713         7.89397         1.35505
C          2.52915         8.61232         1.39798
C          3.72702        10.71569         0.87433
C          2.50983        10.02377         1.16077
C          3.73104        12.14265         0.72685
C          2.48142        12.87674         0.80372
C          3.68292        15.01371         0.41231
C          2.46883        14.30349         0.60278
C          3.67999        16.40582         0.19123
C          2.44238        17.13605         0.21598
C          3.67767        19.25179        -0.12992
C          2.44488        18.56010         0.06916
C          3.68372        20.66798        -0.27496
C          2.45768        21.41147        -0.22300
C          3.70591        23.51277        -0.64550
C          2.47147        22.82640        -0.41043
C          3.72478        24.90940        -0.92175
C          2.47822        25.64379        -0.97226
C          3.71024        27.64022        -1.80269
C          2.45989        26.96880        -1.41654
C          3.71943        29.16771        -2.07726
C          2.38862        29.83258        -1.90205
C          4.13257        32.20812        -2.14948
C          2.24682        31.19048        -2.20207
C          3.98255        33.68210        -1.97686
C          2.60582        34.20756        -1.52594
C          3.78056        36.35173        -0.95556
C          2.58457        35.61414        -1.20877
C          3.73365        37.70374        -0.51219
C          2.46631        38.37838        -0.50086
C          6.29328         3.65149         1.75167
C          5.09996         4.33812         1.79312
C          6.22763         6.41590         1.12300
C          5.05015         5.74377         1.49721
C          6.21038         7.85170         0.89162
C          4.96864         8.57506         1.03562
C          6.15631        10.67839         0.47276
C          4.95165         9.99230         0.79019
C          6.15454        12.09867         0.30583
C          4.93812        12.81926         0.49145
C          6.16728        14.96579        -0.00517
C          4.99250        14.31384         0.66791
C          6.14026        16.36265        -0.22826
C          4.91187        17.10540        -0.06058
C          6.13467        19.20856        -0.44741
C          4.90525        18.51014        -0.21590
C          6.14009        20.62524        -0.52754
C          4.91500        21.36107        -0.46143
C          6.16644        23.46576        -0.79717
C          4.92939        22.77459        -0.62555
C          6.17054        24.84886        -1.06858
C          4.96091        25.57876        -1.16208
C          6.16693        27.73968        -1.46623
C          4.98631        26.99332        -1.46395
C          6.16080        29.17993        -1.49275
C          4.98023        29.89884        -1.74788
C          6.10916        31.94850        -0.69832
C          5.01796        31.35456        -1.56232
C          6.19561        33.46502        -0.80468
C          5.12683        34.22841        -1.17908
C          6.25548        36.33896        -0.31914
C          5.09838        35.69579        -1.03015
C          6.09030        37.67486         0.29187
C          4.87192        38.35858         0.02870
C          8.73886         3.61689         1.39610
C          7.51478         4.30370         1.39734
C          8.65836         6.34362         0.64953
C          7.46834         5.69631         1.04827
C          8.58028         7.73750         0.08138
C          7.38007         8.52598         0.54234
C          8.59202        10.64967         0.12367
C          7.39240         9.95447         0.37421
C          8.58685        12.05163        -0.15153
C          7.35718        12.78000        -0.05140
C          8.50435        14.88732        -0.70824
C          7.33537        14.21698        -0.26219
C          8.52384        16.28599        -0.84427
C          7.33444        17.03745        -0.60978
C          8.55371        19.17901        -0.85098
C          7.34958        18.47965        -0.65538
C          8.59714        20.58831        -0.74779
C          7.37600        21.32504        -0.65579
C          8.65606        23.42440        -0.76255
C          7.40537        22.73720        -0.74843
C          8.69906        24.83351        -0.90626
C          7.45708        25.52498        -1.30493
C          8.70562        27.75422        -1.09648
C          7.46410        27.02602        -1.43665
C          8.66990        29.13374        -1.10281
C          7.42646        29.88490        -1.20893
C          8.66440        31.95946        -0.58282
C          7.43350        31.24177        -0.90638
C          8.60188        33.37293        -0.18863
C          7.40159        34.10006        -0.28790
C          8.45271        36.06029         0.75416
C          7.37535        35.47631         0.09518
C          8.29299        37.36279         1.49731
C          7.12466        38.19854         1.04455
C         11.20020         3.62135         1.15864
C          9.94689         4.27698         1.07015
C         11.10746         6.33658         0.32082
C          9.88575         5.65722         0.65750
C         11.07540         7.78126         0.05007
C          9.88071         8.47636         0.17345
C         11.09090        10.61939        -0.30784
C          9.91042         9.96115         0.35400
C         11.04195        12.00570        -0.59869
C          9.79514        12.71610        -0.52585
C         10.98036        14.84105        -1.27061
C          9.66146        14.06124        -1.21243
C         10.97690        16.30055        -1.01948
C          9.79417        16.98349        -1.02275
C         11.06431        19.17719        -0.98402
C          9.78278        18.46677        -1.32751
C         11.08234        20.53564        -0.72051
C          9.84344        21.27920        -0.70227
C         11.11374        23.38381        -0.42713
C          9.87816        22.68881        -0.62724
C         11.10510        24.81673        -0.43091
C          9.90254        25.54251        -0.74594
C         11.04395        27.66287        -0.28988
C          9.91678        26.99463        -0.76198
C         10.94802        29.16702        -0.06730
C          9.99080        29.86971        -1.04714
C         11.18478        32.08690        -0.53911
C          9.88222        31.32657        -0.65225
C         11.05980        33.43898         0.11161
C          9.78703        34.06231         0.21423
C         10.89270        36.11894         1.06365
C          9.70784        35.39386         0.74066
C         10.79638        37.51876         1.44113
C          9.58612        38.12596         1.58387
C         13.67620         3.68493         1.04841
C         12.40707         4.30994         0.90740
C         13.56565         6.46217         0.29918
C         12.32079         5.68535         0.48698
C         13.43278         7.58452        -0.70343
C         12.27514         8.46794        -0.30859
C         13.47817        10.55708        -0.93205
C         12.28037         9.87519        -0.53703
C         13.49415        11.96806        -0.99309
C         12.26895        12.66645        -0.92458
C         13.54698        14.85565        -0.98921
C         12.27793        14.11441        -1.18673
C         13.54410        16.23567        -0.89636
C         12.26531        17.00562        -0.63758
C         13.56037        19.13312        -0.73035
C         12.33529        18.41898        -1.23482
C         13.53203        20.46901        -0.37861
C         12.31666        21.23654        -0.43042
C         13.54835        23.32344         0.17423
C         12.31702        22.63276        -0.20681
C         13.43827        24.77628         0.36370
C         12.28028        25.51947        -0.05936
C         13.37124        27.65145         0.59525
C         12.23752        26.95306         0.11410
C         13.25635        29.11356         0.95591
C         12.35888        29.79938        -0.08652
C         13.45916        31.96578         0.48940
C         12.32154        31.29732         0.07920
C         13.48905        33.41966         0.54440
C         12.22087        34.12383         0.47284
C         13.36137        36.22127         1.11909
C         12.16071        35.50256         0.89019
C         13.34380        37.55710         1.59555
C         12.05230        38.34406         1.64086
C         16.14888         3.76685         1.00905
C         14.91269         4.37301         0.88505
C         16.09749         6.43640        -0.04851
C         14.88091         5.81909         0.53828
C         16.02234         7.68910        -0.70620
C         14.73013         8.31338        -1.01857
C         16.00615        10.53344        -1.26334
C         14.71550         9.81883        -1.23029
C         15.98751        11.98532        -1.24991
C         14.75707        12.69036        -1.13535
C         16.01040        14.82301        -1.10245
C         14.77518        14.11216        -1.07855
C         16.01662        16.25354        -1.02749
C         14.78267        16.96355        -0.89435
C         16.03099        19.07695        -0.70871
C         14.79365        18.37662        -0.74498
C         16.03739        20.48305        -0.44109
C         14.78504        21.09860         0.16697
C         16.07527        23.21887         0.29278
C         14.75663        22.61424         0.20865
C         16.28772        24.53124         0.87146
C         14.42031        25.52174         1.01111
C         15.85453        27.55225         1.00063
C         14.58434        26.94333         0.89674
C         15.89577        29.02265         1.14005
C         14.60010        29.81141         1.10941
C         15.87628        31.92962         1.01901
C         14.66487        31.25635         0.85023
C         15.91043        33.37865         0.99381
C         14.67009        34.09258         0.80024
C         15.86694        36.21427         1.39938
C         14.67677        35.60345         0.72007
C         15.79146        37.49633         1.95918
C         14.51901        38.17678         1.99498
C         18.65860         3.79672         0.79724
C         17.40983         4.59481         1.04750
C         18.50819         6.40300        -0.38624
C         17.32803         5.81472         0.15434
C         18.44707         7.68720        -0.98599
C         17.21535         8.37196        -1.06867
C         18.46352        10.48402        -1.50059
C         17.19110         9.80371        -1.34965
C         18.47861        11.98450        -1.73007
C         17.20733        12.69922        -1.33073
C         18.49292        14.83144        -1.29208
C         17.23513        14.10439        -1.23328
C         18.48598        16.25761        -1.26554
C         17.24683        16.96870        -1.10370
C         18.48318        19.12410        -1.04006
C         17.25296        18.38884        -0.96165
C         18.47970        20.53997        -0.85418
C         17.23225        21.19525        -0.52606
C         18.46339        23.39739        -0.21470
C         17.21684        22.59331        -0.18235
C         18.29384        24.89502        -0.45152
C         17.24463        25.42210         0.51444
C         18.24692        27.67349         0.19693
C         17.23126        26.85063         1.03721
C         18.35109        29.10699         0.67369
C         17.14100        29.78442         0.94352
C         18.35513        31.90299         1.15676
C         17.12033        31.19420         1.08164
C         18.34853        33.32297         1.34492
C         17.11773        34.04625         1.21220
C         18.31516        36.11744         1.97621
C         17.19202        35.55376         1.14865
C         18.19874        37.42434         2.53223
C         16.95742        38.11607         2.48554
C         19.76548         4.36883         0.24830
C         20.96303         6.38746        -0.63050
C         19.75786         5.71203        -0.25692
C         20.94802         7.63454        -1.18121
C         19.66980         8.28554        -1.64131
C         20.88918        10.55107        -1.76971
C         19.65271         9.80209        -1.59242
C         20.94748        11.88375        -1.56300
C         19.71361        12.62863        -1.09894
C         20.91702        14.85867        -1.40323
C         19.72339        14.13133        -1.33014
C         20.91328        16.25228        -1.44513
C         19.71363        16.97957        -1.35167
C         20.88737        19.19251        -1.40535
C         19.70860        18.43597        -1.28283
C         20.88051        20.57671        -1.23066
C         19.70116        21.26662        -0.92407
C         20.82907        23.61223        -1.06328
C         19.73923        22.72319        -0.60287
C         20.78527        24.95162        -0.83960
C         19.60448        25.64121        -0.35277
C         20.79530        27.73686         0.16504
C         19.58545        26.97021         0.02761
C         20.79727        29.06124         0.49441
C         19.57704        29.79128         0.73940
C         20.79345        31.92304         1.26301
C         19.59175        31.19529         1.06893
C         20.77215        33.27236         1.57949
C         19.56341        33.99943         1.63556
C         20.61905        35.99497         2.74068
C         19.51793        35.39297         2.09255
C         20.52198        37.29254         3.25544
C         19.33122        38.00158         3.16830
O         15.34321        24.88975         1.85134
O          3.74197        28.21519        -3.18154
O         11.70044        14.50021        -2.52287
O          3.20851        31.71589        -3.08378
O         19.40565        23.00867         0.82742
O         14.63515         8.86947        -2.37542
O         14.27487         6.72873         1.55109
O         15.21035        29.46563         2.40250
O          6.13324        36.40480        -1.79168
O          7.60257        26.16252        -2.63214
O          4.13149        34.24923        -3.31890
H          3.59302        33.68916        -3.92068
O          7.96754        36.96051         2.89295
H          7.95753        37.77884         3.43366
O         14.83876        35.92976        -0.71700
H         15.79483        35.77126        -0.92711
O         14.84386        20.68821         1.58694
H         15.63927        21.10897         1.97818
O          5.24264        14.50264         2.12266
H          4.48670        14.09598         2.59851
O         10.16580        10.15558         1.81905
H         10.18787        11.12405         1.97782
O         12.19532        17.20363         0.80604
H         12.32877        16.34001         1.24842
O         19.57058         7.95357        -3.08055
H         19.52718         6.97607        -3.14979
O          1.00794         6.41153         3.47877
H          0.95200         5.46141         3.71725
O          3.85052         2.26153         1.71950
H          3.84315         2.31042         0.74187
O         11.96190        39.09454         2.86250
H         11.91171        38.45932         3.60580
O          5.73517        31.69268         0.69875
H          6.49612        31.95147         1.26109
O          9.69881        18.49719        -2.80355
H         10.55828        18.13564        -3.13301
O         17.51921         5.10809         2.42967
H         16.72075         5.65438         2.59820
O         19.60174        12.44373         0.34105
H         20.38700        12.85135         0.76159
O         17.78740        25.04327        -1.80755
H         17.58679        26.00605        -1.91932
O          9.28958        13.72471        -2.58626
H         10.13478        13.70157        -3.09868
O          8.35850         7.55406        -1.37648
H          7.55371         7.00211        -1.47881
O          0.94573        27.59601        -3.14507
H          1.81059        27.82807        -3.56340
O         10.30462        29.38096         1.20733
H         10.93715        29.12784         1.92283
O         17.54193        35.86492        -0.27858
H         17.79462        36.81347        -0.30566
O         11.59825        32.35460        -1.93080
H         11.50609        31.50384        -2.42136
O         17.69801        26.87013         2.40316
H         17.08593        26.31685         2.93352
O         13.00847        29.49419        -1.34811
H         12.35616        29.62953        -2.07397
O         12.64868        29.17837         2.27642
H         13.39088        29.07499         2.91966
O         18.60277        12.18296        -3.16883
H         17.89891        11.66152        -3.60843
O         17.64503        27.74406        -1.14343
H         18.19977        28.34259        -1.68772
O         13.02939         6.90985        -1.93255
H         13.20805         7.54434        -2.66560
O         12.47153        18.24049        -2.68472
H         12.68544        19.11382        -3.07609
O         10.55044        29.80736        -2.40741
H          9.81027        29.90637        -3.04420
H          1.41754         2.54930         1.65549
H         -0.63052         3.78816         0.87692
H         -0.76381         6.24508         1.09744
H         -0.80847         8.15463         2.03392
H         -0.85712        10.56930         1.62709
H         -0.90430        12.39355         1.13470
H         -0.94238        14.78799         0.77161
H         -0.94973        16.68624         0.61267
H         -0.94896        19.09390         0.37266
H         -0.93223        20.99664         0.25563
H         -0.91760        23.39378        -0.04281
H         -0.87706        25.28748        -0.17104
H         -0.98589        27.53886        -1.04632
H         -0.73370        29.46612        -0.56167
H         -0.58301        31.91442        -0.48631
H         -0.78402        33.67256        -1.57562
H         -0.83048        36.11245        -1.20479
H          0.33952        38.21031        -0.73946
H          3.90000         3.49801         3.35660
H          2.43373        39.44129        -0.22105
H          6.30772         2.57993         1.99963
H          4.75252        39.38748         0.40105
H          8.76219         2.55440         1.68056
H          7.01992        39.20480         1.48183
H         11.23218         2.56801         1.47515
H          9.54723        39.18554         1.88255
H         13.70742         2.62195         1.33242
H         12.09956        39.10702         0.81486
H         16.21159         2.69329         1.24510
H         14.47943        39.20476         2.38375
H         18.69862         2.76302         1.17178
H         16.88414        39.12258         2.92119
H         20.70269         3.79518         0.17748
H         21.92417         5.89277        -0.42199
H         21.90294         8.10879        -1.44911
H         21.79974        10.00833        -2.06172
H         21.91216        12.40387        -1.65431
H         21.88469        14.33872        -1.42717
H         21.87683        16.77473        -1.51047
H         21.84495        18.69974        -1.61948
H         21.83164        21.12290        -1.29841
H         21.72465        23.16926        -1.52261
H         21.66571        25.55479        -1.10844
H         21.75753        27.22834         0.01208
H         21.76067        29.58110         0.57934
H         21.76411        31.41318         1.20245
H         21.72650        33.78408         1.76544
H         21.56183        35.44414         2.85843
H         21.39272        37.74389         3.75162
H         19.25074        39.01022         3.59786
