         294
 CSIRO Nanostructure Databank - Neutral Graphene Oxide Data Set
C          1.93826         2.09132        -2.54160
C          1.54873         3.32118        -1.89491
C          3.12540         1.50810        -2.26665
C          2.35510         3.91918        -0.96622
C          1.08050         6.68672         0.95495
C          1.15689         7.97588         1.34408
C          2.21406         5.92372         0.45005
C          2.45619         8.66764         1.27321
C          1.63615        11.06581         1.71991
C          1.60663        12.38554         1.46350
C          2.39271        10.12074         0.86980
C          2.18987        12.90270         0.17032
C          1.22812        15.26577         0.76476
C          1.26970        16.60778         0.75217
C          2.23121        14.43692         0.04991
C          2.32477        17.39727        -0.02824
C          2.49742        18.78043         0.54006
C          4.18857         2.25387        -1.51444
C          3.68304         3.38015        -0.59554
C          5.19139         1.36426        -0.85068
C          4.77101         4.13884         0.13482
C          3.52179         6.39834         0.47821
C          3.63562         7.85359         0.84425
C          4.77879         5.64315         0.27680
C          4.77824         8.59200         0.24338
C          3.49646        10.71726         0.00061
C          3.52232        12.19368        -0.10688
C          4.74862         9.90879        -0.11248
C          4.64212        12.87776        -0.67835
C          3.49726        15.18746        -0.40552
C          3.59466        16.59453        -0.05343
C          4.75092        14.38685        -0.60710
C          4.80201        17.01660         0.74199
C          3.67765        19.28138         0.96039
C          4.91305        18.51916         0.93357
C          6.20983         1.96718        -0.14512
C          6.09090         3.39065         0.26660
C          7.43107         1.28630         0.14305
C          7.40102         4.14275         0.43256
C          5.99257         6.30658         0.28343
C          6.03370         7.80249         0.34747
C          7.37502         5.66155         0.54918
C          7.31508         8.55199         0.20557
C          5.99105        10.51533        -0.77950
C          6.00728        12.06427        -0.85583
C          7.28900        10.06036        -0.07985
C          7.24037        12.79927        -0.57695
C          6.06424        15.04732        -0.32763
C          6.11392        16.53034         0.05470
C          7.21764        14.16288         0.10283
C          7.33428        16.93746         0.90724
C          6.13252        19.14257         1.00180
C          7.39995        18.44921         0.88251
C          8.65152         2.00399         0.17453
C          8.62947         3.41614         0.10804
C          9.92190         1.32025         0.15207
C          9.78967         4.10768        -0.55380
C          8.48980         6.30341        -0.31651
C          8.59726         7.78350         0.03878
C          9.87335         5.58746        -0.12664
C          9.84519         8.52143        -0.25983
C          8.49561        10.62323        -0.86262
C          8.49042        12.11577        -0.60398
C          9.81181         9.98264        -0.47156
C          9.69436        12.78856        -0.53182
C          8.53491        14.92567         0.12417
C          8.59932        16.23498         0.46549
C          9.82188        14.14294         0.08538
C          9.90344        16.91292         0.89925
C          8.59437        19.10388         0.76569
C          9.87744        18.42739         0.69226
C         11.13683         1.98295        -0.03122
C         11.12642         3.41476        -0.33400
C         12.38526         1.33831         0.23580
C         12.29585         4.08740        -0.56404
C         11.03443         6.30838        -0.86821
C         11.10289         7.78826        -0.55463
C         12.36946         5.57846        -0.66682
C         12.26371         8.47740        -0.45107
C         10.96871        10.66096        -0.59997
C         10.94600        12.11186        -1.01315
C         12.28505         9.95473        -0.74480
C         12.23155        12.85235        -0.68897
C         10.91166        15.01129        -0.58186
C         11.20916        16.21438         0.34689
C         12.23483        14.26109        -0.71499
C         12.17749        17.20418        -0.33088
C         11.03448        19.14250         0.59763
C         12.35569        18.41533         0.64822
C         13.60310         2.02996         0.11151
C         13.56210         3.29867        -0.67892
C         14.81472         1.56723         0.66537
C         14.74373         4.52187         1.19494
C         13.57822         6.33563        -0.16049
C         13.51762         7.82955         0.08207
C         14.76866         5.72850         0.51088
C         14.79654         8.50882        -0.39392
C         13.45971        10.69849        -0.11852
C         13.45219        12.15641        -0.56416
C         14.68785         9.94973        -0.58466
C         14.66062        12.86880        -0.69688
C         13.45257        14.97216        -0.69007
C         13.50955        16.50029        -0.79800
C         14.67243        14.26488        -0.72963
C         14.73431        16.98622         0.05803
C         13.62880        19.18351         0.39233
C         14.78997        18.49029         0.24344
C         15.98844         2.33555         1.01271
C         15.96237         3.71737         1.28294
C         17.23900         1.55114         0.97330
C         17.12970         4.62036         1.66370
C         15.98777         6.63768         0.63863
C         15.99705         7.83337        -0.30819
C         17.27053         5.84303         0.78070
C         17.35758         8.51761        -0.35512
C         15.67269        10.70306        -1.13518
C         15.95555        12.08837        -0.63861
C         17.61107         9.64790        -1.34359
C         17.23164        12.73251        -1.32321
C         15.96312        14.97382        -1.07081
C         16.00117        16.41274        -0.55859
C         17.27543        14.20085        -0.87128
C         17.29022        17.04975        -0.18562
C         16.09561        19.09367         0.50464
C         17.25199        18.37931         0.47688
C         18.38281         1.80959         1.66787
C         18.44195         3.96802         1.88240
C         19.73344         1.36019         1.32307
C         19.65559         4.36181         1.46826
C         18.48416         6.29050         0.36852
C         18.56172         7.58807        -0.35086
C         19.76012         5.42728         0.39094
C         19.88116         8.30107        -0.46230
C         18.70502        10.45272        -1.24344
C         18.56992        11.95730        -0.93913
C         19.95997         9.77545        -0.81236
C         19.84320        12.75172        -1.23531
C         18.46176        14.85049        -0.70357
C         18.53499        16.19399         0.00618
C         19.69614        14.27117        -1.38669
C         19.75990        17.03110        -0.29008
C         18.58352        18.93475         0.91175
C         19.73462        18.39245         0.08932
C         20.83190         2.14751         1.41856
C         20.85295         3.56672         1.98431
C         22.13569         4.32263         1.75337
C         21.08469         6.21409         0.49076
C         21.13919         7.67602         0.10109
C         22.19143         5.56210         1.24407
C         22.12095         8.61860         0.71015
C         21.15954        10.59978        -0.43926
C         21.10721        12.11179        -0.70034
C         22.10830         9.95249         0.50416
C         22.03348        13.02645         0.00583
C         21.05390        15.00942        -1.17266
C         20.90745        16.49200        -0.89021
C         21.91625        14.36087        -0.09985
C         21.99442        17.33348        -1.17644
C         20.83268        19.21289        -0.19594
C         21.94943        18.68813        -0.85194
O         16.72072        17.22074        -1.52914
O         13.76521        16.79634        -2.14069
O         19.32224         7.53731        -1.58951
O          1.71071         4.77629        -0.10295
O          6.77584         8.29345         1.54300
O         20.86491        12.30045        -2.14722
O         16.51750        10.12659        -2.06086
O          5.60746        14.88529        -1.69325
O          9.48663         8.11372         1.15281
O          5.16878        12.44141        -1.98807
O         18.31799         2.79956         2.68905
O          3.79113         3.31898         0.85590
O          3.44001         8.24165         2.26867
O          2.25460        10.15470        -0.58389
O         13.40033         6.04362        -1.59945
O         21.63933         6.64387        -0.80532
O          6.68216         3.56674         1.58619
O         21.09759         9.91201        -1.73171
O          2.41244        14.84785        -1.34560
O         14.49019         3.63206        -1.40228
O         10.37853        15.40446        -1.84538
H         10.78291        16.27935        -2.08600
O          6.92317        13.81646         1.49382
H          7.68604        13.30013         1.83765
O         11.57694        17.73740        -1.52235
H         12.31617        17.66653        -2.20490
O         16.76558         5.09813         3.02164
H         16.86669         4.32644         3.62251
O         12.58042        10.01452        -2.18927
H         11.98298         9.38557        -2.64765
O         11.90631        15.62404         1.47856
H         12.87738        15.82529         1.42826
O          4.93969         3.03142        -2.52735
H          5.18420         2.42169        -3.25575
O         10.24038         5.55357         1.25993
H          9.98433         6.42620         1.65908
O         10.13913        13.86326         1.49059
H         11.08717        13.60618         1.53798
O         19.39516        14.47733        -2.79373
H         18.63635        13.89439        -3.03709
O         13.37273         7.99215         1.51584
H         13.36293         8.96647         1.70844
O         18.79756        18.51878         2.28879
H         19.70712        18.78167         2.54194
O         10.84010        12.09141        -2.48058
H         11.67764        11.68717        -2.81113
O          1.78478        17.53786        -1.36932
H          1.75805        16.63134        -1.76022
O         18.63139        11.91486         0.52173
H         18.02603        11.19665         0.84121
O         21.82147        14.88282        -2.38665
H         21.63749        13.98153        -2.74637
O          7.32629        10.72908         1.20112
H          7.06150        10.05786         1.87893
O          1.27007        12.50360        -0.88056
H          1.65344        12.80342        -1.73346
O         13.59001         4.00771         1.70316
H         12.87690         4.68001         1.68344
O         20.77346         3.45360         3.42891
H         19.92563         2.99603         3.63664
O         13.34959        10.71039         1.32701
H         14.17339        11.13336         1.66156
O         12.52623        17.98393         2.04092
H         11.65599        17.64446         2.37159
O         17.44354         9.24062         0.93870
H         16.87170         8.73730         1.58228
O         15.83872         7.31949         1.94954
H         15.99066         6.64430         2.65742
O         15.85101        15.07795        -2.53225
H         15.12689        15.76294        -2.68076
O         17.08453        12.69292        -2.74623
H         16.49703        13.45321        -3.00220
O         18.56361        15.84525         1.42579
H         18.63212        16.69294         1.93628
O          4.59843        16.33948         2.01028
H          5.46648        16.33516         2.49070
O         10.78100         6.27475        -2.31275
H         11.66381         6.38046        -2.74199
O         16.15937        11.94110         0.81051
H         16.52150        12.79318         1.14244
O         14.60211        16.39031         1.38176
H         14.19542        17.07353         1.97427
O          5.95497         9.98596        -2.11401
H          5.49120        10.64943        -2.67501
O          7.17063        16.53965         2.29866
H          8.06333        16.65478         2.71581
O          9.51102         3.96646        -1.97231
H         10.11006         4.58344        -2.45978
O          8.05389         6.20526        -1.67762
H          8.80870         6.40867        -2.27511
O          7.70374         5.95049         1.91710
H          7.13256         5.38352         2.48128
O          9.91019        16.74130         2.35520
H         10.20455        15.80837         2.50655
O         19.77744         4.73591        -0.87709
H         20.09084         5.39614        -1.54143
O          6.25365        17.28093        -1.16231
H          5.90386        16.72635        -1.89950
O          8.40571        10.36699        -2.27973
H          9.07216        10.95484        -2.70981
H          1.20009         1.58478        -3.17883
H          0.52626         3.69548        -2.03151
H          3.38994         0.53098        -2.69620
H          0.11287         6.16513         0.95350
H          0.25592         8.53739         1.62985
H          1.21492        10.67233         2.65742
H          1.12052        13.07151         2.17173
H          0.41529        14.75187         1.29869
H          0.47691        17.18850         1.24815
H          1.59863        19.41452         0.54979
H          5.26386         0.30459        -1.13830
H          3.73251        20.32868         1.29741
H          7.46628         0.19379         0.01632
H          6.16042        20.24025         1.10028
H          9.92748         0.23682         0.34573
H          8.60493        20.20564         0.73989
H         12.37004         0.33685         0.69521
H         11.00049        20.24016         0.51106
H         14.86782         0.49165         0.91067
H         13.64943        20.26736         0.58885
H         17.26540         0.73857         0.23114
H         16.10456        20.13326         0.86986
H         19.82693         0.37122         0.84569
H         18.57305        20.05943         0.87712
H         21.79147         1.73302         1.06951
H         23.04416         3.88148         2.19121
H         23.16702         6.06912         1.18617
H         22.88272         8.19201         1.37987
H         22.85219        10.57613         1.02267
H         22.74954        12.59400         0.72123
H         22.59232        15.01031         0.47751
H         22.87788        16.91087        -1.67327
H         20.80741        20.27484         0.09149
H         22.80039        19.34142        -1.09013
