         470
 CSIRO Nanostructure Databank - Neutral Graphene Oxide Data Set
C         37.91162        49.60661        -2.40324
C         36.81123        50.21841        -3.00256
C         38.05412        52.28319        -3.15947
C         36.88894        51.55899        -3.39025
C         40.25904        48.26660        -1.09361
C         40.30754        49.62757        -1.64121
C         39.09903        50.31809        -2.17218
C         40.34509        52.50233        -2.19536
C         39.17707        51.68884        -2.54420
C         40.52198        53.80163        -2.62206
C         42.50143        48.49918        -0.08249
C         41.32285        47.73231        -0.44109
C         42.48657        49.87252        -0.26824
C         41.46398        50.48459        -1.13509
C         42.46611        52.83628        -0.74202
C         41.30093        51.96677        -1.20133
C         42.65607        54.12765        -1.42313
C         41.66517        54.57790        -2.27404
C         44.89233        45.81210         1.15166
C         43.72422        46.46536         0.67840
C         44.85779        48.62694         0.78963
C         43.67120        47.83910         0.50197
C         44.85453        50.00271         0.58424
C         43.60408        50.70210         0.22906
C         44.97197        52.85476        -0.16865
C         43.64340        52.19394        -0.05442
C         45.04614        54.21935        -0.67546
C         43.90700        54.85275        -1.22211
C         45.16526        56.93432        -1.44936
C         43.99582        56.22158        -1.59175
C         47.33333        44.38152         2.02866
C         47.28197        45.88159         2.04234
C         46.05946        46.50587         1.38033
C         47.27952        48.63819         1.28640
C         46.08196        47.93693         1.17373
C         47.32150        50.09334         1.27047
C         46.02235        50.84109         0.87535
C         47.42378        52.81996         0.07396
C         46.09684        52.19504         0.26826
C         47.48006        54.28678        -0.15793
C         46.28308        54.94464        -0.57453
C         47.59377        57.03442        -0.87353
C         46.34921        56.31725        -0.96223
C         47.67648        58.42135        -1.22473
C         49.74327        44.35317         1.58821
C         48.49715        43.69598         1.81664
C         49.75776        45.78474         1.53740
C         48.56105        46.48823         1.55144
C         49.72804        48.65919         1.92061
C         48.60844        47.93785         1.15997
C         49.81290        50.10888         1.47570
C         48.64084        50.75139         1.12324
C         49.86699        52.92539         0.81210
C         48.66984        52.09377         0.51010
C         49.96364        54.25410         0.13845
C         48.69970        54.97944        -0.13050
C         50.01585        57.10511        -0.28202
C         48.77040        56.36955        -0.44806
C         50.06226        58.50042        -0.67778
C         48.85691        59.10799        -1.15674
C         52.19568        41.51859         0.84037
C         51.04545        42.14623         1.14939
C         52.27152        44.37099         1.14986
C         50.95408        43.62097         1.15614
C         52.26162        45.74812         1.72210
C         51.01934        46.54579         1.55011
C         52.29872        48.65077         1.96156
C         51.03487        47.89669         1.75439
C         52.30820        50.09066         1.58326
C         51.09034        50.77307         1.43173
C         52.41460        52.93410         1.16881
C         51.12125        52.23577         1.25946
C         52.43782        54.36222         0.95753
C         51.25058        55.01367         0.31924
C         52.32000        57.26675         0.64281
C         51.16635        56.47848         0.21543
C         52.41890        58.70251         0.08759
C         51.28107        59.21507        -0.67962
C         52.63074        61.17580        -1.26482
C         51.44577        60.48748        -1.30818
C         54.82982        39.99215         0.56992
C         54.79031        41.45958         0.47433
C         53.46753        42.23905         0.58105
C         54.76698        44.26146         1.26861
C         53.55588        43.63632         1.06092
C         54.86267        45.61058         1.99669
C         53.55900        46.40021         2.07825
C         54.85556        48.58042         1.67413
C         53.61010        47.90771         2.09382
C         54.80157        50.00222         1.33609
C         53.54685        50.77576         1.48571
C         54.87107        52.90945         1.54740
C         53.58791        52.19508         1.34820
C         54.87086        54.43881         1.52973
C         53.59505        55.09231         1.15235
C         54.88899        57.31959         1.02482
C         53.57847        56.56816         1.07981
C         54.88679        58.66582         0.39356
C         53.76503        59.30078        -0.08597
C         55.06286        61.29123        -0.83942
C         53.84392        60.62195        -0.71988
C         55.18773        62.64183        -1.33088
C         57.27604        40.02303         0.54826
C         56.01461        39.32920         0.61828
C         57.29142        41.44295         0.65689
C         56.04340        42.18806         0.76136
C         57.28417        44.30608         1.11614
C         56.00975        43.54497         1.06091
C         57.30040        45.69124         1.69329
C         56.04721        46.45103         1.57229
C         57.35768        48.56954         1.46121
C         56.07136        47.85220         1.56044
C         57.38618        49.97894         1.31140
C         56.11938        50.73328         1.11363
C         57.31859        52.90481         1.17033
C         56.14331        52.21143         1.28915
C         57.36785        54.37068         1.18851
C         56.15636        55.13133         1.28385
C         57.38087        57.24114         1.00958
C         56.17783        56.55435         1.06812
C         57.42734        58.70200         0.81769
C         56.16803        59.40430         0.41483
C         57.48582        61.49125        -0.11220
C         56.34950        60.54429        -0.56142
C         57.68858        62.61647        -1.14599
C         56.37601        63.28991        -1.44173
C         59.77152        37.24547        -0.14747
C         58.59132        37.90419         0.23943
C         59.68380        40.07153         0.01498
C         58.50406        39.31915         0.29043
C         59.73764        41.45500         0.29682
C         58.53302        42.11943         0.65832
C         59.86249        44.17200         1.35370
C         58.56979        43.57657         0.88066
C         59.88391        45.63581         1.65948
C         58.60024        46.42170         1.80521
C         59.82623        48.58537         1.56505
C         58.59773        47.89071         1.59593
C         59.85003        49.99112         1.34154
C         58.60652        50.67539         1.23489
C         59.82222        52.84359         0.58325
C         58.55284        52.12223         0.87258
C         59.82203        54.35025         0.59060
C         58.58635        55.04595         0.96695
C         59.92270        57.24126         0.93255
C         58.65600        56.51092         1.32106
C         59.92593        58.65979         0.76919
C         58.72332        59.37758         0.55564
C         60.00215        61.42904         0.17406
C         58.77481        60.73402         0.17473
C         60.12662        62.80788        -0.43137
C         58.81740        63.51815        -0.69855
C         59.97826        65.66662        -0.49833
C         58.79766        64.87629        -0.74371
C         62.19353        35.83875        -1.06184
C         62.05272        37.31183        -1.34216
C         60.88238        37.94001        -0.60798
C         62.16904        40.18176        -0.69632
C         60.83833        39.39879        -0.58532
C         62.18476        41.52874        -0.10889
C         61.00724        42.14705         0.28694
C         62.19934        44.39347         0.28768
C         61.16720        43.45169         1.01849
C         62.27520        45.74958         0.99707
C         61.14391        46.38381         1.45871
C         62.40663        48.59075         1.59371
C         61.10494        47.83894         1.74661
C         62.34804        50.04554         1.28808
C         61.12239        50.69208         1.15828
C         62.42635        52.89539         0.82167
C         61.12755        52.10128         0.69628
C         62.40699        54.37833         0.91310
C         61.14923        55.10628         0.67671
C         62.37508        57.26593         1.09282
C         61.13511        56.55989         0.95650
C         62.35971        58.68111         1.07570
C         61.16737        59.37172         0.79400
C         62.42210        61.52557         0.79845
C         61.19772        60.79323         0.59784
C         62.36732        63.00155         0.81474
C         61.11500        63.67029         0.32616
C         62.37145        65.84392         0.21177
C         61.14109        65.10874        -0.02505
C         62.41249        67.21751        -0.05926
C         64.62483        35.85583        -1.35249
C         63.38412        35.18612        -1.08413
C         64.59264        37.31593        -1.43052
C         63.36291        38.05489        -1.10288
C         64.68537        40.08504        -0.53061
C         63.43007        39.40249        -0.79581
C         64.67786        41.48657        -0.14145
C         63.45938        42.20288         0.03442
C         64.71168        44.29192         0.28608
C         63.50221        43.60101         0.27787
C         64.65051        45.79100         0.09638
C         63.51650        46.48132         0.83938
C         64.87182        48.53400         1.04519
C         63.58440        47.81840         1.12626
C         64.88829        50.03336         1.23885
C         63.59835        50.77586         1.25627
C         64.88696        52.90484         1.42471
C         63.61875        52.15768         1.26719
C         64.85145        54.42418         1.55072
C         63.55607        55.09336         1.16931
C         64.84716        57.22032         1.37751
C         63.59747        56.53273         1.22898
C         64.83496        58.66400         1.67713
C         63.55968        59.44520         1.46087
C         64.83185        61.64919         1.35922
C         63.61750        60.90525         1.20168
C         64.86079        63.06060         1.10129
C         63.62732        63.77505         0.87437
C         64.78688        65.97488         0.80263
C         63.56790        65.15969         0.64189
C         64.80272        67.36901         0.33185
C         63.60237        67.96117        -0.03267
C         67.06134        33.04122        -1.70810
C         65.87905        33.74291        -1.64768
C         67.11812        35.84509        -1.36633
C         65.85656        35.15826        -1.47632
C         67.15877        37.24418        -1.11062
C         65.94170        38.05360        -1.23596
C         67.15838        39.97423        -0.23791
C         65.91134        39.40371        -0.66347
C         67.13484        41.36956         0.26266
C         65.89915        42.16084         0.09634
C         67.20234        44.28275         0.30724
C         65.94311        43.56916         0.27748
C         67.17381        45.71746         0.20790
C         65.99414        46.45963         0.24219
C         67.21707        48.62412         0.26173
C         66.04475        47.88519         0.42827
C         67.24851        50.05725         0.43242
C         66.08744        50.73959         0.75858
C         67.22410        52.90903         0.19505
C         66.13801        52.19766         0.98294
C         67.24030        54.42841         0.39234
C         66.01219        55.14111         0.86510
C         67.33165        57.29135         1.11652
C         66.08279        56.57974         1.21468
C         67.36143        58.67097         1.34426
C         66.13550        59.41418         1.71514
C         67.44405        61.72461         1.61016
C         66.10550        60.95330         1.70242
C         67.35974        63.11475         1.01267
C         66.11692        63.76139         0.98065
C         67.33569        65.92399         0.39790
C         66.12699        65.23537         0.89927
C         67.27481        67.29226         0.09756
C         66.06581        68.05966         0.22235
C         67.31761        70.15817        -0.12739
C         66.12349        69.46108         0.14562
C         69.57377        31.53155        -1.76248
C         69.56349        32.94110        -1.62165
C         68.31954        33.68774        -1.56829
C         69.59238        35.78792        -1.25069
C         68.33921        35.09590        -1.38093
C         69.61028        37.19327        -1.01453
C         68.36721        37.90886        -0.82503
C         69.70531        39.82695         0.07577
C         68.35777        39.27330        -0.37584
C         69.72957        41.34396         0.34265
C         68.43582        42.10586         0.45956
C         69.68736        44.26031         0.18475
C         68.45207        43.58580         0.31509
C         69.72763        45.75429         0.41384
C         68.45084        46.42811        -0.02278
C         69.75348        48.64840         0.05399
C         68.46386        47.93301        -0.08826
C         69.75104        50.06807         0.15817
C         68.51428        50.78475         0.27970
C         69.75683        52.90507         0.31122
C         68.54041        52.18475         0.34583
C         69.75106        54.36280         0.55980
C         68.51601        55.15153         0.55243
C         69.79880        57.23593         0.58534
C         68.55718        56.53152         0.80198
C         69.87359        58.70283         0.78036
C         68.60396        59.45270         1.21190
C         69.83639        61.57617         0.79810
C         68.54593        60.89569         0.97234
C         69.88220        63.09709         0.83847
C         68.57696        63.81939         0.75832
C         69.79881        65.85453         0.00662
C         68.56055        65.17387         0.33890
C         69.77054        67.27390        -0.43119
C         68.46349        68.00663        -0.40532
C         69.68610        70.13405        -0.95058
C         68.48323        69.47995        -0.44648
C         69.62173        71.43979        -1.48270
C         71.98901        31.50405        -1.75204
C         70.76386        30.82355        -1.82660
C         72.00654        32.88408        -1.61122
C         70.80717        33.62958        -1.54170
C         72.02371        35.80559        -1.34053
C         70.82158        35.07640        -1.37697
C         72.02667        37.19513        -1.21534
C         70.83423        37.90431        -1.04523
C         72.08521        40.10915        -0.82622
C         70.75147        39.42075        -1.00120
C         72.18273        41.36273        -0.36996
C         70.99305        42.10610         0.11910
C         72.07179        44.31589        -0.33945
C         70.92848        43.58707        -0.01814
C         72.07154        45.73175        -0.42679
C         70.95670        46.47307        -0.10113
C         72.17926        48.66443        -0.09067
C         70.95907        47.92980        -0.06372
C         72.18903        50.04052        -0.03901
C         70.98338        50.78812         0.07731
C         72.16760        52.98782        -0.19872
C         70.97980        52.22545         0.12578
C         72.18934        54.34527        -0.23905
C         71.07443        55.13842         0.29257
C         71.98522        57.34366        -0.53149
C         70.94004        56.58718         0.09512
C         71.93696        58.70801        -0.62004
C         70.91351        59.46394         0.04698
C         71.78293        61.62683        -0.79092
C         70.90911        60.85367         0.07071
C         71.82868        62.97612        -0.76770
C         71.18207        63.76838         0.35019
C         72.22646        65.94208        -0.36493
C         71.01706        65.21810        -0.02355
C         72.25648        67.28510        -0.52124
C         71.02640        68.10993        -0.24260
C         72.05348        70.07568        -1.50921
C         70.92855        69.44291        -0.96775
C         71.96868        71.36504        -2.04153
C         70.75107        72.04993        -2.02030
O         65.18064        49.14144         2.36333
O         59.90748        44.61264         2.74166
O         54.14830        57.19195         2.28228
O         66.16076        60.19370         2.95651
O         57.94624        44.33836        -0.21312
O         55.36304        50.27499        -0.04152
O         52.71313        45.82188         3.12610
O         46.48098        50.76734         2.26724
O         41.24856        52.69570         0.05792
O         69.04845        67.44677        -1.67553
O         61.29797        40.03014        -1.85628
O         50.18791        52.94981         2.22542
O         61.88547        48.25000         2.92339
O         68.46363        47.09684        -1.31463
O         65.88306        52.42848         2.40912
O         61.89721        44.70638        -1.02978
O         54.07584        41.96550        -0.71429
O         67.68841        41.59665         1.61724
O         70.66656        54.73476         1.63420
O         63.98919        59.02825         2.80673
O         52.94721        48.47366         3.28179
O         51.49926        44.25277        -0.07998
O         70.18112        62.34700         2.04725
O         59.00689        52.32770        -0.52243
O         65.49416        65.83361         2.08024
O         50.92405        54.31667        -0.96009
O         70.60116        41.66711         1.48556
O         66.25848        55.00325        -0.57480
O         48.27926        52.07707        -0.90524
O         52.02587        58.41756         1.47490
O         57.89370        45.95806         3.00882
O         65.32230        37.90718        -2.55204
O         54.85609        53.68846         2.79412
O         61.96353        52.35393        -0.47338
O         69.68434        59.09002         2.17390
O         61.28051        63.44386         1.74685
O         43.29098        51.71387         1.27482
O         60.48327        54.86431        -0.62183
O         41.48744        49.89205        -2.48134
O         56.64412        59.54865         1.78914
O         48.99059        48.00323        -0.24739
H         48.35554        47.46684        -0.76651
O         61.82536        43.11292         2.26082
H         61.44783        43.71276         2.95276
O         64.28324        45.96147        -1.31398
H         63.37369        45.53382        -1.42633
O         60.75728        62.59931        -1.74300
H         60.09787        62.10739        -2.28837
O         58.74914        56.50262         2.81338
H         57.83849        56.41352         3.17087
O         49.37377        48.60390         3.32319
H         50.11047        48.98467         3.84741
O         67.86289        61.98793         2.97280
H         67.63371        61.18829         3.50372
O         66.86553        52.65103        -1.19388
H         66.33938        53.42387        -1.51045
O         69.74563        45.91675         1.87547
H         70.45486        45.34248         2.23500
O         65.00330        54.73557         2.96101
H         65.54548        54.02066         3.36813
O         70.20315        39.87472        -2.27093
H         70.77081        39.53319        -2.99287
O         57.07759        62.15298         1.09829
H         56.94471        61.45457         1.78399
O         56.72201        59.86288        -1.79091
H         57.13051        60.52993        -2.39526
O         61.74319        37.44968        -2.76526
H         61.61530        38.41584        -2.92918
O         71.05037        68.42965         1.18634
H         71.91839        68.83403         1.39469
O         58.15268        62.01271        -2.41440
H         58.03351        62.68728        -3.11697
O         72.15154        63.75653         1.43083
H         71.82798        63.08407         2.08169
O         47.20720        46.28739         3.46691
H         47.68157        47.14620         3.56307
O         70.04203        39.15230         1.30036
H         70.40425        39.83277         1.91546
O         55.19796        45.22030         3.36312
H         54.36626        45.25486         3.88984
H         37.84215        48.54679        -2.12280
H         35.89197        49.64315        -3.17740
H         38.08426        53.34249        -3.44786
H         36.02754        52.04594        -3.86758
H         39.34504        47.66774        -1.21065
H         39.81147        54.25158        -3.32898
H         41.24751        46.69343        -0.09243
H         41.77762        55.54790        -2.77753
H         44.84370        44.72857         1.32700
H         42.84619        45.84077         0.46871
H         45.17018        57.99280        -1.73890
H         43.10683        56.73807        -1.97676
H         46.41843        43.82149         2.26798
H         46.77803        58.95650        -1.55752
H         48.47293        42.59633         1.82992
H         48.86396        60.17059        -1.43318
H         52.20103        40.42127         0.77300
H         50.14371        41.55569         1.36663
H         52.67117        62.16047        -1.74887
H         50.59578        60.94594        -1.83168
H         53.89083        39.42349         0.52758
H         54.27383        63.19796        -1.58649
H         56.00731        38.23087         0.64321
H         56.38500        64.32233        -1.82230
H         59.76232        36.14693        -0.15154
H         57.72030        37.28954         0.50151
H         59.90837        66.74274        -0.70723
H         57.87621        65.41584        -1.00680
H         61.27927        35.24783        -0.91353
H         61.49702        67.73438        -0.37448
H         63.39351        34.10157        -0.90314
H         63.57489        69.01160        -0.35307
H         67.01503        31.95659        -1.87038
H         64.93387        33.19791        -1.77173
H         67.29364        71.25675        -0.13391
H         65.20950        70.04624         0.31564
H         68.62921        30.97484        -1.81969
H         68.66345        71.97750        -1.49317
H         72.93331        30.94467        -1.80161
H         70.74757        29.73034        -1.93465
H         72.97747        33.39310        -1.54797
H         72.98922        35.29332        -1.44245
H         72.99438        37.71360        -1.23973
H         72.99911        39.60196        -1.16909
H         73.17054        41.84143        -0.29674
H         73.01152        43.79134        -0.55569
H         72.99491        46.22577        -0.75977
H         73.13628        48.12819        -0.14904
H         73.15566        50.56098        -0.06325
H         73.05741        52.44421        -0.54478
H         73.07572        54.86046        -0.63450
H         72.83659        56.81003        -0.97470
H         72.75365        59.23474        -1.13030
H         72.38001        61.09050        -1.54261
H         72.48498        63.50757        -1.47251
H         73.15598        65.36255        -0.45847
H         73.21626        67.78550        -0.71616
H         73.02458        69.56189        -1.52662
H         72.86249        71.83911        -2.46953
H         70.68165        73.06463        -2.43567
