         598
 CSIRO Nanostructure Databank - Neutral Graphene Oxide Data Set
C         22.85963        69.53090        -1.00161
C         22.85026        70.97983        -0.55015
C         21.69102        71.80478        -0.89244
C         22.93399        73.86103        -0.46410
C         21.73201        73.17315        -0.74678
C         25.50088        65.36819        -1.06061
C         25.48148        66.76021        -1.11427
C         24.24951        67.48544        -1.03458
C         25.44385        69.60600        -0.81114
C         24.21081        68.85436        -0.91430
C         25.43922        70.99687        -0.56900
C         24.16971        71.70929        -0.31861
C         25.39150        73.86429        -0.37283
C         24.16564        73.18439        -0.38238
C         27.93950        61.18012        -0.35546
C         27.93493        62.51589        -0.72327
C         26.73665        63.28453        -0.83603
C         27.91428        65.36459        -1.71900
C         26.71487        64.63655        -1.15435
C         27.95132        66.83348        -1.35448
C         26.72331        67.50536        -1.17228
C         27.91614        69.65127        -0.98966
C         26.69076        68.91933        -0.99434
C         27.87991        71.04349        -0.65785
C         26.65876        71.72342        -0.48533
C         27.82782        73.91756        -0.32401
C         26.64301        73.18170        -0.34356
C         30.44902        56.92563         0.32214
C         30.43369        58.32135         0.09316
C         29.18897        59.06375        -0.01762
C         30.40687        61.21478         0.04712
C         29.15452        60.43536        -0.14749
C         30.45136        62.66341        -0.37571
C         29.21958        63.20341        -1.02206
C         30.48825        65.39798        -1.32869
C         29.23211        64.62836        -1.49199
C         30.43922        66.83833        -1.67103
C         29.15723        67.57157        -1.43459
C         30.38468        69.78086        -1.41073
C         29.14542        68.97131        -1.26484
C         30.40602        71.17834        -0.85550
C         29.12848        71.74445        -0.33628
C         30.39504        73.98189        -0.40024
C         29.12162        73.27386        -0.17297
C         32.75767        52.73951         1.49207
C         32.79543        54.11024         1.09417
C         31.61237        54.86624         0.95885
C         32.93875        56.82310         0.25469
C         31.66157        56.20023         0.50899
C         32.90785        58.22920        -0.18409
C         31.65920        58.99798        -0.03353
C         32.96529        61.22136        -0.10214
C         31.69348        60.45948         0.12995
C         32.92749        62.67408        -0.43270
C         31.74053        63.35039        -0.64996
C         32.93420        65.52327        -1.03765
C         31.69699        64.76476        -1.04703
C         32.98102        66.89257        -1.30035
C         31.74155        67.60093        -1.70139
C         32.97859        69.83954        -1.26914
C         31.71894        69.10567        -1.61703
C         32.97268        71.23757        -0.77221
C         31.67043        71.82600        -0.28972
C         32.85023        74.03277        -0.56845
C         31.61046        73.33290        -0.45048
C         35.12753        48.50907         1.28499
C         35.16465        49.83287         1.86683
C         33.97944        50.56625         1.81967
C         35.18716        52.64632         1.49396
C         33.93133        52.00074         1.72966
C         35.13138        53.80147         0.70691
C         34.04585        54.70540         0.68742
C         35.43677        56.87568         0.28768
C         34.15782        56.11704         0.33386
C         35.46390        58.28201         0.03817
C         34.21695        58.95802        -0.39236
C         35.46737        61.23789        -0.51228
C         34.19445        60.46337        -0.51191
C         35.40046        62.71097        -0.32710
C         34.20106        63.36864        -0.43957
C         35.42544        65.59967        -0.48538
C         34.14730        64.84945        -0.50838
C         35.51478        66.91469        -1.20256
C         34.20208        67.66153        -1.17057
C         35.44154        69.78705        -0.97118
C         34.22049        69.04849        -1.12323
C         35.40951        71.17754        -0.63710
C         34.14983        71.93034        -0.57647
C         35.25856        74.27156        -0.54475
C         34.10350        73.41166        -0.48621
C         37.66757        44.33119         0.56695
C         37.63166        45.67743         0.98583
C         36.39466        46.34232         0.83366
C         37.91532        48.42810         2.31036
C         36.04535        47.50795         1.55425
C         37.77562        49.87682         2.54649
C         36.40384        50.53737         2.36889
C         37.71934        52.87897         2.21707
C         36.41561        52.06994         2.09536
C         37.74694        54.32174         1.79331
C         36.92417        54.90225         0.82829
C         37.78652        57.11666         1.12431
C         36.68493        56.30238         0.73097
C         37.78226        58.50856         0.81843
C         36.64262        59.07383         0.21797
C         37.82653        61.33004         0.38858
C         36.79189        60.49482        -0.35234
C         37.79672        62.69426         0.36793
C         36.74016        63.40768        -0.43041
C         37.77877        65.63950         0.17053
C         36.70007        64.89620        -0.21866
C         37.86680        67.06167        -0.16031
C         36.71750        67.70884        -0.76485
C         37.96430        69.88283        -1.06754
C         36.69037        69.08142        -0.91092
C         37.86688        71.09718        -0.17688
C         36.57933        71.68442        -0.02623
C         37.76263        74.59593        -0.19860
C         36.51871        73.95075        -0.02079
C         40.06894        40.04688        -0.10096
C         40.08301        41.44546         0.05949
C         38.87899        42.20054         0.20934
C         40.10717        44.36679         0.41407
C         38.85462        43.57859         0.45453
C         40.16823        45.71194         1.01513
C         38.90787        46.24736         1.67460
C         40.26220        48.51020         1.69983
C         39.00570        47.77039         1.82811
C         40.29649        49.90532         1.94961
C         39.08670        50.62999         2.46041
C         40.35748        52.81462         2.18752
C         39.06222        52.13911         2.45676
C         40.51822        54.15914         2.48097
C         38.67022        55.24069         2.35553
C         40.20435        57.17346         1.97415
C         38.87508        56.50646         1.81124
C         40.19956        58.63121         1.63338
C         38.96048        59.28367         1.13977
C         40.18237        61.41839         1.21720
C         38.97768        60.64866         0.94910
C         40.14980        62.78566         1.23832
C         38.87319        63.48773         1.02069
C         40.11601        65.79572         1.26301
C         38.87886        64.99010         0.92994
C         40.17782        67.24195         0.81894
C         39.03414        67.78538         0.04708
C         40.45745        69.87414        -0.40567
C         39.25748        69.00363        -0.80602
C         40.35270        71.38354        -0.12775
C         38.99213        71.79935         0.20046
C         40.30210        74.40989        -0.05970
C         39.00261        74.03974         0.24930
C         42.43587        35.79754        -0.89672
C         42.50183        37.13398        -0.51545
C         41.28929        37.90855        -0.38573
C         42.54796        39.98730         0.08183
C         41.26654        39.27905        -0.14891
C         42.56166        41.46097         0.02579
C         41.35571        42.14013         0.06337
C         42.65800        44.26047         0.40411
C         41.37700        43.60720         0.12744
C         42.64529        45.63735         0.93528
C         41.37270        46.39466         1.07297
C         42.72563        48.49922         1.39151
C         41.46802        47.80190         1.41188
C         42.74265        49.92815         1.50800
C         41.51540        50.62223         1.74298
C         42.71772        52.75482         1.55003
C         41.52549        52.06068         1.77985
C         42.67334        54.21978         1.35159
C         41.52561        54.98886         1.86810
C         42.65091        57.07472         1.18224
C         41.45886        56.36925         1.74649
C         42.67314        58.58168         1.03264
C         41.45813        59.34737         1.33213
C         42.68886        61.46593         1.09108
C         41.45519        60.71340         1.27432
C         42.66264        62.84217         1.17070
C         41.39568        63.53865         1.50036
C         42.70428        65.77370         1.53547
C         41.38812        65.03289         1.56532
C         42.69576        67.30383         1.30476
C         41.49014        67.95100         0.76764
C         42.79034        70.02882         0.49530
C         41.61194        69.22708         0.23857
C         42.75309        71.48697         0.45943
C         41.53287        72.18231         0.30825
C         42.73130        74.30763         0.25569
C         41.50351        73.62486         0.22327
C         44.85294        33.06871        -1.96465
C         43.66077        33.67447        -1.64675
C         45.01939        35.72103        -0.89884
C         43.62724        34.96458        -0.96319
C         44.96709        37.17444        -0.81908
C         43.79155        37.80982        -0.48719
C         45.05706        40.02359        -0.45372
C         43.83523        39.24711        -0.14700
C         45.01322        41.44230        -0.33870
C         43.82367        42.15751        -0.07289
C         45.03279        44.44135        -0.20449
C         43.83145        43.58693         0.14412
C         45.19041        45.71199         0.58840
C         43.96933        46.37615         1.05944
C         45.22130        48.52371         1.14776
C         43.97026        47.83805         1.18520
C         45.26109        49.96407         1.33773
C         43.99089        50.63777         1.42872
C         45.19051        52.77220         1.44993
C         43.96134        52.06228         1.42169
C         45.19683        54.24324         1.55443
C         43.96656        54.97313         1.19057
C         45.17872        57.14205         1.14399
C         43.97215        56.43335         1.28879
C         45.16385        58.57999         0.93214
C         43.96145        59.29261         0.96194
C         45.10591        61.42741         0.62335
C         43.93494        60.73971         0.88059
C         45.11551        62.89142         0.46091
C         43.83446        63.64816         0.78509
C         45.14969        65.75735         1.01725
C         43.93446        65.07270         1.16709
C         45.18640        67.20339         1.10736
C         43.98877        67.94942         1.05775
C         45.16551        70.13015         1.19806
C         43.96216        69.36426         0.87458
C         45.20963        71.56134         0.88074
C         43.98033        72.21866         0.60325
C         45.21062        74.33629         0.43584
C         43.97638        73.64425         0.43979
C         46.11185        33.71865        -1.84408
C         47.42015        35.79879        -1.50168
C         46.21003        35.05767        -1.45815
C         47.46150        37.18858        -1.28159
C         46.16278        37.94924        -1.29093
C         47.50335        40.03869        -0.82172
C         46.24255        39.35691        -0.79487
C         47.55453        41.42004        -0.59013
C         46.27723        42.16335        -0.56704
C         47.61235        44.23235         0.01927
C         46.30977        43.64606        -0.40997
C         47.66382        45.66286         0.44380
C         46.38340        46.41033         0.59440
C         47.74237        48.45613         0.99039
C         46.41936        47.79718         0.92449
C         47.80707        49.92690         1.33584
C         46.49243        50.67462         1.44195
C         47.56488        52.95697         1.86847
C         46.41710        52.10266         1.58908
C         47.73441        54.27270         1.50442
C         46.48153        55.04456         1.52001
C         47.67595        57.13028         0.92635
C         46.43745        56.46874         1.17696
C         47.63082        58.56390         0.62183
C         46.41461        59.24401         0.66410
C         47.60992        61.46356         0.13196
C         46.34217        60.68325         0.32944
C         47.60310        62.93625         0.34446
C         46.39301        63.62786         0.55156
C         47.61428        65.74474         0.61567
C         46.38241        65.03759         0.72573
C         47.61324        67.18118         0.70647
C         46.45037        67.88423         0.99892
C         47.69695        70.11966         1.04839
C         46.48812        69.34345         1.25660
C         47.69790        71.53394         0.97064
C         46.43858        72.24868         0.87282
C         47.68879        74.32429         0.41811
C         46.44736        73.66101         0.58862
C         48.67168        37.89450        -1.24099
C         49.94600        40.01267        -1.12335
C         48.73332        39.30800        -1.06468
C         50.00611        41.42474        -0.94972
C         48.78523        42.14130        -0.65901
C         50.03409        44.27177        -0.55184
C         48.83234        43.53856        -0.44736
C         50.05815        45.68984        -0.35865
C         48.89815        46.41881         0.14632
C         49.95650        48.58787        -0.39965
C         48.88749        47.78128         0.29995
C         50.14080        49.98077         0.16012
C         49.09823        50.62252         0.95538
C         50.48797        52.75517         1.10171
C         49.39593        51.84252         1.49349
C         50.29478        54.23168         0.89457
C         49.08280        55.01482         1.51385
C         50.02206        57.10087         0.26495
C         48.89559        56.42717         0.93839
C         50.06268        58.58184         0.21435
C         48.87230        59.28595         0.36833
C         50.07435        61.42670         0.09542
C         48.89110        60.72982         0.24969
C         50.03989        62.89949        -0.26215
C         48.82214        63.63388         0.25873
C         50.10613        65.74606         0.31385
C         48.83467        65.03706         0.38412
C         50.13770        67.13206         0.44331
C         48.87959        67.90617         0.48491
C         50.19346        70.05326         1.23211
C         48.93151        69.38843         0.72491
C         50.23551        71.48613         0.61366
C         48.92484        72.23588         0.76976
C         50.15887        74.31840         0.18400
C         48.92822        73.63387         0.46839
C         51.20578        42.15317        -1.06228
C         52.44419        44.29125        -1.06165
C         51.24625        43.56235        -0.90031
C         52.47076        45.69739        -0.94101
C         51.25758        46.39943        -0.59452
C         52.43768        48.51537        -0.82907
C         51.26895        47.82850        -0.53910
C         52.39952        49.98889        -0.87642
C         51.30651        50.64795        -0.11722
C         52.60399        52.83320        -0.31287
C         51.54983        52.03523         0.32324
C         52.56311        54.21973        -0.16367
C         51.34078        54.89043         0.27984
C         52.46208        57.07346        -0.63162
C         51.22226        56.31786        -0.13979
C         52.48329        58.53743        -0.24119
C         51.31393        59.26580        -0.03749
C         52.50586        61.45490        -0.23501
C         51.32542        60.72758        -0.03893
C         52.54820        62.90312        -0.10044
C         51.33836        63.61270         0.01846
C         52.58445        65.72341         0.20315
C         51.34129        65.01635         0.18405
C         52.58915        67.13864         0.29158
C         51.37279        67.84551         0.43257
C         52.63400        69.73054         1.19824
C         51.40980        69.22031         0.86523
C         52.67580        71.87945         1.32022
C         51.43972        72.37726         0.91522
C         52.68411        74.37017         0.23042
C         51.42233        73.70779         0.39192
C         53.66040        46.43493        -1.18096
C         54.88417        48.58223        -1.33924
C         53.67443        47.83683        -1.13466
C         54.94444        49.97820        -1.28242
C         53.67907        50.73526        -1.13960
C         54.97902        52.84386        -0.87760
C         53.76268        52.16332        -0.78260
C         54.99901        54.25368        -0.64960
C         53.76895        54.95933        -0.42524
C         54.99688        57.07127        -0.42590
C         53.77042        56.36401        -0.39260
C         55.03162        58.49616        -0.39943
C         53.74230        59.22638        -0.56638
C         55.05080        61.43448        -0.47411
C         53.73390        60.73256        -0.59107
C         55.07099        62.90767        -0.25581
C         53.78760        63.62062        -0.08221
C         55.09533        65.72710         0.19492
C         53.82204        65.01178         0.08739
C         55.13456        67.13681         0.25132
C         53.86334        67.86625         0.15494
C         55.14366        70.09682         0.82931
C         53.88857        69.33617         0.60351
C         55.13361        71.52586         0.85726
C         53.92722        72.36766         0.88368
C         55.20527        74.43314         0.15459
C         53.90363        73.70777         0.40060
C         56.15786        50.71286        -1.32072
C         57.42266        52.84583        -1.16182
C         56.20829        52.11748        -1.14843
C         57.46173        54.23920        -0.93076
C         56.22673        54.95576        -0.69225
C         57.46926        57.07499        -0.41250
C         56.23649        56.36145        -0.49843
C         57.48292        58.45317        -0.13137
C         56.24925        59.16212        -0.20290
C         57.47409        61.36786         0.29944
C         56.21139        60.63234         0.02783
C         57.50707        62.85394         0.23166
C         56.32643        63.57732         0.15863
C         57.54263        65.71365         0.46742
C         56.32245        65.00991         0.27114
C         57.53699        67.11790         0.63302
C         56.33939        67.85416         0.49365
C         57.58642        69.98641         0.63267
C         56.36166        69.33385         0.64335
C         57.62013        71.44127         0.86535
C         56.37513        72.22045         0.72139
C         57.67604        74.27475         0.31245
C         56.44820        73.61037         0.45015
C         58.67152        54.98137        -0.95527
C         59.88824        57.12796        -0.84369
C         58.70329        56.36215        -0.69258
C         59.99866        58.48020        -0.47118
C         58.80541        59.08890         0.31967
C         59.85660        61.37292         0.55772
C         58.74426        60.61792         0.32345
C         59.95535        62.78679         0.29678
C         58.76844        63.54117         0.26093
C         60.02068        65.63552         0.44811
C         58.79433        64.98020         0.36903
C         60.09538        67.04335         0.89372
C         58.79680        67.85319         1.07105
C         60.15241        69.95538         0.35929
C         58.83288        69.17951         0.27659
C         60.16772        71.43881         0.46726
C         58.92146        72.18906         0.80070
C         60.15526        74.25604         0.22143
C         58.93121        73.62714         0.45172
C         61.22320        59.11945        -0.79327
C         62.56846        61.29620        -0.75252
C         61.66228        60.36060        -0.27016
C         62.52930        62.69165        -0.35581
C         61.21738        63.39895        -0.13207
C         62.53782        65.64280         0.00924
C         61.22948        64.95890        -0.03120
C         62.60508        67.00591         0.24768
C         61.40351        67.75711         0.67544
C         62.65302        69.88029         0.48676
C         61.43438        69.22792         0.54274
C         62.71621        71.35997         0.74380
C         61.44555        72.16219         0.76933
C         62.59546        74.22740        -0.02015
C         61.43059        73.59939         0.35769
C         63.66117        63.46733        -0.52754
C         64.94215        65.56522        -0.40483
C         63.72864        64.89206        -0.31379
C         65.05277        66.97409        -0.16825
C         63.84958        67.72133         0.16459
C         65.16032        69.83303         0.21808
C         63.87455        69.11611         0.30550
C         65.07169        71.28377        -0.12353
C         63.98859        72.10725         0.45757
C         65.00625        74.10577        -0.82433
C         63.91249        73.56793         0.01061
C         66.28182        67.61127        -0.30264
C         67.77488        69.67412        -0.39236
C         66.46556        69.03096        -0.02119
C         67.81418        70.76438        -1.21899
C         65.86918        71.84998        -1.06631
C         67.24845        73.74517        -1.86799
C         66.01778        73.27850        -1.28341
C         68.80569        71.77084        -1.44786
C         68.47823        73.06786        -1.87794
O         48.61597        52.32382         2.53395
O         41.34027        64.24470         2.80300
O         66.05657        69.47740         1.32493
O         53.77802        68.95260        -0.81668
O         30.27879        70.96390        -2.28405
O         43.33520        39.48206         1.22320
O         55.29075        62.30532        -1.61584
O         29.43387        63.49481        -2.44124
O         32.49002        69.73558        -2.68046
O         52.67913        50.51934        -2.22330
O         34.59807        65.56928         0.72389
O         58.38997        71.83764         2.10835
O         43.20196        54.54968         0.01188
O         48.03624        48.91881         2.37376
O         39.59261        54.80323         3.30697
O         60.98851        64.26347        -1.29906
O         33.54206        58.36572        -1.54396
O         48.87798        68.88468        -0.64425
O         36.08063        51.48832         3.39845
O         45.91617        38.09870        -2.83542
O         45.76080        69.75038         2.47005
O         66.60634        71.01583        -1.90914
O         52.68527        70.74801         2.15568
O         38.37282        64.31283         2.13687
O         32.55982        60.87922         1.26354
O         42.42104        57.69947        -0.14139
O         50.13938        56.47673        -1.13350
O         44.45950        35.03206         0.24046
O         40.66159        44.31891        -0.96164
O         27.68042        65.44585        -3.22313
O         42.71572        66.70716         2.64673
O         46.31112        43.09814        -1.76540
O         60.98345        67.27364         2.04474
O         44.24131        63.38823        -0.61219
O         45.73895        54.77087         2.80254
O         30.25971        62.29160         1.02686
O         36.26067        54.08086        -0.07371
O         60.21101        70.84222        -0.86597
O         31.12384        67.12868        -2.94195
O         46.84075        61.01828        -1.03943
O         61.03682        60.73226         0.93895
O         43.36942        45.67738         2.22970
O         40.67362        70.83877        -1.45399
O         36.81272        47.68828         2.72592
O         53.64750        59.97137        -1.84234
O         23.37713        71.16417         0.79777
O         34.77633        60.88178        -1.78142
O         29.16665        72.32475         0.99143
O         37.97741        70.26894        -2.41796
O         39.82122        66.85865         2.20668
O         38.28791        52.70087         3.53691
O         51.70202        52.27200         1.79515
O         38.88248        72.87328         1.06289
O         64.35257        73.15012         1.38276
O         38.55870        50.16590         3.75263
O         62.08686        71.77043         2.00862
O         56.55103        60.94827         1.42382
O         47.71989        44.57606         1.44549
O         40.21539        58.16985         3.05462
O         36.49447        72.78642         0.79740
O         58.63161        68.14965         2.46621
H         59.50950        68.02250         2.90015
O         44.67666        44.99192        -1.52310
H         45.00043        44.33853        -2.19062
O         49.46908        55.20351         2.90384
H         49.42947        54.32536         3.34361
O         38.89867        45.67694         3.01336
H         38.14173        46.08376         3.49071
O         35.76207        66.57775        -2.60108
H         35.95714        67.40655        -3.08938
O         49.44915        48.77004        -1.76910
H         50.16564        49.18617        -2.29665
O         31.67984        71.51438         1.13636
H         30.86735        71.92543         1.52707
O         58.99525        58.65639         1.69446
H         59.78852        59.12569         2.03356
O         37.32777        60.34180        -1.70116
H         36.56785        60.08115        -2.27436
O         55.26874        74.90186        -1.20583
H         55.21141        74.12561        -1.79995
O         39.60607        68.45230        -2.08991
H         39.14476        69.08099        -2.73211
O         58.69906        68.77038        -1.10685
H         58.96399        69.53823        -1.66355
O         44.70417        38.85459        -3.00592
H         45.03173        39.73303        -3.31966
O         27.16710        64.17976        -3.67724
H         27.97493        63.59962        -3.64253
O         50.35935        71.24336        -0.82015
H         50.31569        72.10720        -1.28232
O         52.38409        57.12467        -2.08676
H         51.42371        57.17119        -2.31358
O         37.14737        63.25404        -1.83407
H         37.25929        62.28629        -2.01363
O         49.90112        62.93404        -1.72397
H         49.09223        62.43099        -1.96181
O         22.39271        69.45587        -2.36259
H         23.13492        69.66814        -2.96471
O         50.05332        70.14288         2.65980
H         50.91262        70.46280         3.01979
H         22.92884        74.96012        -0.43527
H         25.39334        74.96465        -0.37087
H         27.78701        75.01128        -0.43467
H         30.35810        75.07586        -0.51699
H         32.81310        75.13103        -0.63534
H         35.10117        75.28569        -0.94410
H         37.79558        75.49263        -0.83333
H         40.46219        75.38021        -0.55343
H         42.73450        75.39965         0.12196
H         45.21370        75.42321         0.26379
H         47.68893        75.40018         0.18631
H         50.11223        75.37198        -0.12776
H         52.69378        75.41656        -0.10826
H         55.22315        75.35472         0.79649
H         57.66327        75.34140         0.04304
H         60.15772        75.31656        -0.07406
H         62.54444        75.25006        -0.42580
H         65.02777        75.18569        -1.03696
H         67.28147        74.81133        -2.14323
H         22.11899        68.95953        -0.38367
H         20.79905        71.31138        -1.30324
H         20.82574        73.76339        -0.94478
H         24.56731        64.82381        -0.85327
H         23.30700        66.92104        -1.09219
H         26.97903        60.65532        -0.23911
H         25.78775        62.79882        -0.56007
H         29.49532        56.39567         0.45952
H         28.25059        58.49154        -0.06938
H         31.77837        52.25803         1.62554
H         30.64168        54.41002         1.20081
H         34.34648        48.31862         0.53329
H         33.04706        50.02400         1.59929
H         36.71216        43.83698         0.33035
H         35.66604        45.91535         0.12667
H         39.10220        39.52665        -0.17933
H         37.92251        41.65624         0.18986
H         41.46571        35.35665        -1.17187
H         40.33326        37.37925        -0.52064
H         44.83457        32.06869        -2.42180
H         42.70864        33.20232        -1.93046
H         47.01259        33.19440        -2.19462
H         48.36093        35.26308        -1.70292
H         49.61490        37.33476        -1.33564
H         50.87587        39.46301        -1.33345
H         52.13942        41.61899        -1.29434
H         53.36983        43.75625        -1.32142
H         54.58274        45.89105        -1.43361
H         55.81589        48.01590        -1.49042
H         57.10140        50.16328        -1.46053
H         58.36521        52.30949        -1.34975
H         59.61258        54.46010        -1.18804
H         60.77438        56.63064        -1.26939
H         61.87080        58.61002        -1.52577
H         63.30034        61.00664        -1.52230
H         64.60006        62.96277        -0.80293
H         65.85558        65.00253        -0.64891
H         67.13296        67.04377        -0.70886
H         68.66095        69.36831         0.18320
H         69.86395        71.53878        -1.25840
H         69.34050        73.69652        -2.15662
