         232
 CSIRO Nanostructure Databank - Neutral Graphene Oxide Data Set
C        -10.99775         0.59401         1.13787
C         -9.78758         1.43902         1.08471
C         -8.46172         0.69145         0.94920
C         -7.30480         1.40613         0.37782
C         -6.24615         0.72728        -0.14876
C         -5.10639         1.44156        -0.77684
C         -3.90004         0.67197        -1.24580
C         -2.56469         1.39482        -1.53789
C         -1.37135         0.63906        -0.92372
C         -0.18585         1.39445        -0.31098
C          1.15730         0.65529        -0.42183
C          2.44953         1.39458        -0.36334
C          3.70508         0.82670        -1.00380
C          4.94363         1.46412        -0.36808
C          6.15832         0.66484        -0.25340
C          7.50921         1.29711        -0.35812
C          8.58948         0.70286         0.46081
C          9.64577         1.41222         1.02054
C         10.81666         0.65191         1.42851
C         -9.84847         2.83909         0.65842
C         -8.68694         3.59554         0.44382
C         -7.36054         2.89536         0.45025
C         -6.17076         3.63347        -0.04793
C         -4.98954         2.89486        -0.54559
C         -3.84916         3.59980        -0.80561
C         -2.59671         2.90983        -1.22596
C         -1.31724         3.62055        -0.91361
C         -0.04469         2.83083        -0.82470
C          1.21172         3.59520        -0.54638
C          2.45169         2.86996        -0.21320
C          3.63578         3.52762        -0.02132
C          4.88510         2.76885         0.09288
C          6.05301         3.53327         0.55263
C          7.09342         3.02067         1.29417
C          8.43554         3.61700         1.20085
C          9.59777         2.86372         1.15250
C         -8.73031         4.98508         0.24476
C         -7.58250         5.76838        -0.24273
C         -6.29206         5.04787        -0.51060
C         -5.01018         5.78819        -0.56100
C         -3.84045         5.05477        -0.68362
C         -2.54262         5.75764        -0.70294
C         -1.37142         4.94631        -0.18025
C         -0.04599         5.68977        -0.15925
C          1.14380         5.03674        -0.19383
C          2.34754         5.63487         0.53740
C          3.66400         4.97747         0.16653
C          4.84654         5.65038         0.17478
C          6.16382         4.91731        -0.04647
C          7.35345         5.70557         0.48728
C          8.45356         5.05419         0.97948
C         -7.49361         7.22934        -0.08011
C         -6.29848         7.91136        -0.18870
C         -5.02910         7.22553        -0.41329
C         -3.83515         7.94211        -0.34824
C         -2.54981         7.24209        -0.50518
C         -1.35300         7.89317         0.10856
C         -0.09202         7.11474         0.25810
C          1.19267         7.85051         0.34963
C          2.35422         7.15018         0.48648
C          3.63159         7.85434         0.75012
C          4.90186         7.08670         0.53746
C          6.15209         7.82629         0.22980
C          7.33574         7.13961         0.25831
C         -6.24451         9.35104        -0.01944
C         -5.06778        10.03967         0.00466
C         -3.79502         9.36328        -0.10446
C         -2.57969        10.04766        -0.00901
C         -1.31175         9.37778         0.05478
C         -0.09149        10.01833         0.12777
C          1.17352         9.31979         0.28209
C          2.35399        10.01302         0.34448
C          3.66199         9.38696         0.76565
C          4.87727         9.93091         0.03584
C          6.03367         9.24002        -0.08928
C        -10.92216        -0.74808         1.29179
C         -9.66627        -1.49416         1.28287
C         -8.45286        -0.78367         0.92810
C         -7.31184        -1.44836         0.52066
C         -6.32337        -0.76981        -0.40244
C         -4.96898        -1.46839        -0.51368
C         -3.86526        -0.79046        -0.99313
C         -2.59568        -1.49602        -1.43989
C         -1.37955        -0.71941        -0.94834
C         -0.12611        -1.48806        -0.70133
C          1.13864        -0.73591        -0.97271
C          2.43138        -1.46357        -1.15852
C          3.72251        -0.70812        -1.01193
C          4.90509        -1.45995        -0.52835
C          6.09640        -0.69791        -0.09734
C          7.23437        -1.47007         0.44692
C          8.50480        -0.74865         0.74053
C          9.76293        -1.50567         0.90072
C         10.90321        -0.71125         1.28737
C         -9.67162        -2.87265         1.33558
C         -8.41427        -3.61110         1.36110
C         -7.14909        -2.84252         0.91713
C         -5.91256        -3.63633         0.50864
C         -4.93125        -2.90348        -0.38921
C         -3.81079        -3.63032        -0.83030
C         -2.57588        -2.97851        -1.11956
C         -1.36585        -3.69963        -1.10159
C         -0.09167        -2.96006        -0.89308
C          1.18479        -3.65159        -1.29031
C          2.47819        -2.94877        -1.07509
C          3.62150        -3.65196        -0.73892
C          4.78405        -2.90514        -0.04430
C          6.13319        -3.59962        -0.14159
C          7.27544        -2.93327         0.21324
C          8.54601        -3.62222         0.43337
C          9.73629        -2.88182         0.78119
C         -8.40689        -5.08937         1.27225
C         -7.36534        -5.78314         0.71786
C         -6.26062        -5.04765         0.04016
C         -5.10225        -5.83400        -0.49449
C         -3.85610        -5.10450        -0.88597
C         -2.55101        -5.87685        -0.88258
C         -1.30322        -5.10541        -0.92038
C         -0.07801        -5.81216        -0.78595
C          1.16834        -5.15015        -1.24857
C          2.48815        -5.91685        -1.28848
C          3.69257        -5.09085        -0.73001
C          4.87923        -5.78173        -0.48539
C          6.20650        -5.04353        -0.54826
C          7.37510        -5.76317         0.08834
C          8.54825        -5.01542         0.40735
C         -7.33818        -7.22618         0.65896
C         -6.20413        -7.93225         0.30738
C         -4.99707        -7.25395        -0.11429
C         -3.75868        -7.87996         0.02299
C         -2.52841        -7.23368        -0.31013
C         -1.27992        -7.82654        -0.03250
C         -0.06074        -7.13098        -0.29730
C          1.25910        -7.71827         0.17693
C          2.44515        -7.24132        -0.61472
C          3.70079        -8.05219        -0.68836
C          4.92697        -7.20181        -0.35898
C          6.11102        -7.86639        -0.00420
C          7.31760        -7.13461         0.24099
C         -6.13735        -9.39155         0.39882
C         -4.95174       -10.00783         0.56472
C         -3.71507        -9.17895         0.80294
C         -2.40998        -9.90461         0.65591
C         -1.24936        -9.22813         0.39370
C          0.03517        -9.89448         0.44734
C          1.22203        -9.23176         0.29207
C          2.47569        -9.93032         0.41759
C          3.66842        -9.34431         0.09186
C          4.93165        -9.99179         0.33504
C          6.09919        -9.29107         0.24955
O         -0.06060        -2.36710         0.46581
O         -8.88387         1.23021         2.24058
O          4.69519        -1.24756        -1.97905
O          4.36863         7.31252         1.90713
O         -5.12715        -3.86717         1.72139
H         -5.73082        -3.69203         2.48570
O         -2.59014        -1.45356        -2.89472
H         -2.56193        -0.50458        -3.18068
O          1.44603        -7.21355         1.55283
H          0.82970        -7.70364         2.13735
O          6.38200         4.78680        -1.47994
H          6.89551         3.95549        -1.62463
O         -7.18235         5.28921        -1.63462
O          7.72914         2.16907        -1.20667
O         -0.99244         7.33446         1.43349
O          0.98448        -4.41321        -2.52161
O         -6.21136        -5.39317        -1.36811
O          4.41944        -2.92776         1.29621
O         -2.37311         1.27688        -2.96901
H         -1.91109         2.09859        -3.26972
O         -2.29039         6.64780        -1.82777
O          1.65028        -0.94131        -2.31445
O         -3.32975        -5.68736        -2.11967
O          6.51038        -5.01767        -1.99336
H          7.39378        -4.60477        -2.10063
O         -1.87224         3.67369        -2.25416
O          3.83428         9.81845         2.14887
H          4.27596         9.06640         2.61275
O         -7.45014        -3.05792         2.33894
O          3.88946        -8.47987        -2.07990
H          3.75432        -7.68269        -2.65002
O         -6.39525         3.47581         1.40290
O         -4.94550         1.06079        -2.20925
O          1.93710         0.69145         0.82607
O          3.67023         1.25080        -2.38340
H          4.24620         0.63693        -2.89064
O         -6.89832        -0.89410        -1.74418
H         -6.31629        -0.36738        -2.34610
O          7.54243        -1.05003         1.84069
O         -3.78377        -8.78733         2.22736
H         -2.98513        -8.25307         2.42371
O          2.12251         5.25085         1.92950
H          1.40554         5.81396         2.29111
O         -0.51450         1.52759         1.09057
H          0.29896         1.30559         1.60535
O          0.82243         3.16011        -1.93377
O         -1.65775         4.65006         1.20990
H         -1.56961         5.49732         1.71227
O          2.84696        -6.10191        -2.68930
H          2.43985        -5.34279        -3.17851
O          6.88868         1.92505         2.07366
H          7.71136         1.64956         2.52501
H         11.84996        -1.22306         1.51704
H         11.69057         1.21151         1.79358
H         10.55798         3.40432         1.13065
H          9.37983         5.61074         1.19345
H          8.29066         7.67622         0.13904
H          6.92644         9.74134        -0.49494
H          4.85658        10.99700        -0.23759
H          2.33386        11.11259         0.28711
H         -0.05988        11.11860         0.10435
H         -2.59400        11.14492         0.07851
H         -5.07093        11.13078         0.14307
H         -7.19592         9.89012         0.10066
H         -8.41061         7.78472         0.17059
H         -9.68956         5.50775         0.38138
H        -10.83420         3.31445         0.54448
H        -11.97835         1.08896         1.07463
H        -11.84870        -1.33595         1.37560
H        -10.62099        -3.42732         1.36146
H         -9.27245        -5.63418         1.67975
H         -8.22063        -7.77264         1.02492
H         -7.07416        -9.96480         0.33254
H         -4.88560       -11.10268         0.64654
H         -2.36633       -10.96635         0.94336
H          0.04315       -10.98161         0.62000
H          2.46004       -10.95561         0.82019
H          4.93429       -11.04348         0.65825
H          7.05624        -9.78307         0.47684
H          8.20051        -7.68322         0.60375
H          9.45421        -5.56236         0.71140
H         10.65644        -3.45728         0.96946
