         344
 CSIRO Nanostructure Databank - Neutral Graphene Oxide Data Set
C          1.35604         1.97779         1.16608
C          1.35008         3.40100         1.07461
C          2.54251         1.28539         1.19638
C          2.49314         4.16222         1.22975
C          1.48368         6.19527         0.12257
C          1.52670         7.55213        -0.13412
C          2.42162         5.60038         1.00802
C          2.55189         8.40516         0.38930
C          1.31940        10.48748        -0.24730
C          1.28569        11.82223        -0.52382
C          2.48392         9.81465         0.25276
C          2.54945        12.63002        -0.56792
C          1.16985        14.81927        -0.09233
C          1.09889        16.17463        -0.10345
C          2.42297        14.12119        -0.30562
C          2.28093        16.95971        -0.62618
C          2.32733        18.43330        -0.27929
C          3.78856         1.99297         1.21348
C          3.77369         3.43001         1.70602
C          4.94934         1.35887         0.82441
C          5.07497         4.14443         1.36311
C          3.35663         6.49936         1.58390
C          3.59082         7.80468         1.17212
C          5.22752         5.46855         1.73959
C          4.85146         8.50345         1.71407
C          3.57486        10.63898         0.80271
C          3.61780        12.07688         0.36363
C          4.84574        10.00627         1.33651
C          4.92148        12.78521         0.28085
C          3.61571        14.82060        -0.24908
C          3.58266        16.32230        -0.10755
C          4.88174        14.15758        -0.08537
C          4.81346        17.00934        -0.71588
C          3.49849        19.10513        -0.17496
C          4.80557        18.47116        -0.30514
C          6.19069         2.04874         0.62560
C          6.20913         3.48803         0.80480
C          7.35499         1.37821         0.26192
C          7.37856         4.22946         0.56349
C          6.25161         6.33827         1.26032
C          6.18197         7.77953         1.29093
C          7.39233         5.66092         0.72925
C          7.35532         8.49509         1.00107
C          6.13932        10.75909         1.14891
C          6.13002        12.12271         0.53640
C          7.46205         9.99563         1.29658
C          7.36512        12.82135         0.33525
C          6.10710        14.92122        -0.13492
C          6.08904        16.30059        -0.34605
C          7.35375        14.20748         0.00949
C          7.34140        17.07970        -0.62786
C          5.97257        19.15038        -0.09680
C          7.28281        18.52028        -0.16870
C          8.59261         2.06287         0.11252
C          8.61081         3.51631         0.26679
C          9.76009         1.37899        -0.26646
C          9.79383         4.20732         0.16792
C          8.55723         6.41395         0.44741
C          8.56758         7.80321         0.64239
C          9.76090         5.69837        -0.12176
C          9.83023         8.54277         0.46137
C          8.62543        10.69228         0.61018
C          8.60289        12.10324         0.40477
C          9.81393         9.97208         0.44681
C          9.82511        12.80242         0.06781
C          8.58563        14.93173        -0.13504
C          8.59358        16.36560        -0.21396
C          9.80739        14.23895        -0.12280
C          9.77796        17.07822        -0.10218
C          8.42884        19.20012         0.10125
C          9.78794        18.55422         0.22968
C         11.01709         2.02700        -0.31903
C         11.09721         3.44034         0.20640
C         12.21658         1.37629        -0.60120
C         12.20050         4.25264        -0.52991
C         11.04857         6.39453         0.27882
C         11.04575         7.86889         0.28097
C         12.31703         5.63421         0.12828
C         12.30318         8.54540         0.01821
C         11.12381        10.71208         0.45462
C         11.02088        12.11939        -0.03552
C         12.31002         9.95733        -0.07258
C         12.20985        12.79874        -0.64580
C         11.03503        14.96676        -0.22896
C         11.02936        16.39320        -0.16296
C         12.25742        14.27467        -0.36979
C         12.25255        17.11858        -0.25027
C         10.93702        19.29562        -0.48693
C         12.26029        18.55819        -0.31760
C         13.47994         2.05274        -0.64398
C         13.52137         3.51245        -0.56603
C         14.68738         1.36264        -0.76025
C         14.67160         4.21350        -0.76969
C         13.65210         6.35182         0.06666
C         13.51199         7.83302        -0.20331
C         14.62364         5.71449        -0.93597
C         14.72175         8.51994        -0.44994
C         13.50694        10.64872        -0.34774
C         13.52035        12.10190        -0.43155
C         14.71605         9.92609        -0.47199
C         14.68882        12.81381        -0.58586
C         13.47601        14.97350        -0.40199
C         13.48199        16.40734        -0.31761
C         14.71170        14.25545        -0.53694
C         14.71854        17.10936        -0.31421
C         13.45959        19.23513        -0.30877
C         14.72463        18.54528        -0.25638
C         15.93617         2.04700        -0.88409
C         15.91009         3.50977        -1.26497
C         17.14549         1.38942        -0.78186
C         17.19872         4.25335        -1.00059
C         15.97481         6.40409        -0.81648
C         15.97643         7.78254        -0.65148
C         17.20392         5.66921        -0.94842
C         17.21485         8.52776        -0.80960
C         16.00599        10.68441        -0.34863
C         15.94204        12.07513        -0.98229
C         17.20543         9.91306        -0.81733
C         17.22200        12.80595        -0.67309
C         15.93610        14.95645        -0.47210
C         15.94611        16.38603        -0.33098
C         17.18675        14.24698        -0.43295
C         17.17738        17.08359        -0.19596
C         15.95022        19.22288        -0.18620
C         17.18823        18.51998        -0.12938
C         18.40172         2.08813        -0.83570
C         18.40680         3.53008        -0.92581
C         19.60792         1.39528        -0.70882
C         19.66454         4.22458        -0.91573
C         18.45711         6.38457        -0.95267
C         18.46099         7.80864        -0.96598
C         19.68901         5.66376        -0.96920
C         19.69431         8.54294        -0.97960
C         18.41790        10.68985        -1.24536
C         18.39451        12.12374        -0.77384
C         19.70380         9.94733        -0.99404
C         19.69977        12.87576        -0.73680
C         18.36620        14.92796        -0.16607
C         18.40179        16.35694        -0.08289
C         19.58973        14.11110         0.15747
C         19.63527        17.04327         0.06712
C         18.43142        19.18507        -0.01523
C         19.65226        18.47591         0.07397
C         20.85674         2.07544        -0.70456
C         20.86230         3.49013        -0.84702
C         22.09155         1.37202        -0.54697
C         22.18649         4.16150        -1.08829
C         20.93830         6.36554        -0.95076
C         20.95496         7.81246        -0.92998
C         22.16351         5.66001        -0.92104
C         22.16167         8.49263        -0.98812
C         20.92216        10.68008        -0.78748
C         20.88740        12.00420        -0.39567
C         22.22114         9.98889        -1.15676
C         22.08541        12.65549         0.17185
C         20.85958        14.91239         0.17674
C         20.87458        16.30159         0.20109
C         22.05861        14.13304         0.47701
C         22.13016        17.02497         0.31038
C         20.90554        19.15875         0.15943
C         22.12404        18.47436         0.25994
C         23.31466         2.03713        -0.37865
C         23.29577         3.54498        -0.24981
C         24.52791         1.37085        -0.16904
C         24.62765         4.21558        -0.51903
C         23.40890         6.31790        -0.93333
C         23.41196         7.76225        -1.14689
C         24.64598         5.61130        -0.76859
C         24.77021         8.53347        -0.94937
C         23.47351        10.60231        -0.56640
C         23.40692        11.97238         0.01050
C         24.67517         9.95340        -0.52495
C         24.65322        12.80134        -0.20391
C         23.37005        14.88785         0.59309
C         23.34482        16.34686         0.42764
C         24.63792        14.18250         0.38244
C         24.60323        17.03559         0.49747
C         23.37431        19.16226         0.30385
C         24.59620        18.48894         0.41597
C         25.76459         2.07222        -0.06149
C         25.81253         3.50244        -0.29624
C         26.95455         1.39085         0.23705
C         27.08299         4.18315        -0.34240
C         25.90093         6.32424        -0.66543
C         25.91797         7.74326        -0.57013
C         27.11243         5.58668        -0.50080
C         27.06419         8.42795         0.06092
C         25.90227        10.63298        -0.07625
C         25.90934        12.03015         0.08983
C         27.10206         9.90507         0.12414
C         27.10848        12.73893         0.35508
C         25.83123        14.88649         0.49938
C         25.79648        16.32327         0.64294
C         27.08933        14.16825         0.49538
C         27.05858        17.05530         1.01464
C         25.84865        19.17078         0.38076
C         27.06514        18.50258         0.55488
C         28.20029         2.06197         0.25924
C         28.27348         3.42481        -0.09980
C         29.40167         1.36077         0.66078
C         29.59507         4.06915        -0.16038
C         28.40752         6.36946        -0.65732
C         28.36708         7.67999         0.11089
C         29.67706         5.57758        -0.37138
C         29.62795         8.45061         0.22251
C         28.32971        10.58966         0.33136
C         28.34106        12.01436         0.41794
C         29.59025         9.86164         0.37511
C         29.57749        12.74048         0.56321
C         28.31224        14.89854         0.59707
C         28.30491        16.29410         0.65498
C         29.57873        14.16652         0.63435
C         29.58976        17.01041         0.36452
C         28.29697        19.18162         0.50218
C         29.53913        18.51142         0.55967
C         30.59745         2.00430         0.80656
C         30.74009         3.39493         0.47022
C         31.90406         4.11176         0.69345
C         30.86566         6.27809         0.14500
C         30.84915         7.73978         0.24264
C         31.95440         5.52413         0.55182
C         32.04837         8.47248         0.38954
C         30.81299        10.57571         0.52194
C         30.80743        12.02532         0.64853
C         32.02611         9.85007         0.51836
C         31.99525        12.75067         0.86213
C         30.78862        14.86377         0.85904
C         30.75957        16.36471         1.11968
C         31.97913        14.13601         0.99048
C         32.02994        17.11442         0.79491
C         30.75172        19.18749         0.62019
C         31.98940        18.46584         0.62945
O          5.40127        10.79846         2.43443
O          4.21600         5.98612         2.56396
O         24.23117         8.24274        -2.28170
O         11.71271         5.79733         1.46677
O         22.73790        11.93368         1.29518
O         27.53439         7.72117         1.29625
O         29.94765         4.65802        -1.47817
O         22.62185        14.43958         1.79713
O          3.11557        11.74048         1.68025
O         11.82241         4.39790        -1.87525
O          3.67543         3.35340         3.15643
H          3.73550         4.27969         3.48760
O          4.75444        16.96111        -2.17573
H          5.65441        17.23920        -2.49150
O          2.15081        16.85222        -2.06609
H          3.01815        17.10798        -2.46554
O         10.13700        18.64834         1.65009
H          9.44634        18.17793         2.16255
O         29.87739        16.79335        -1.05357
H         29.21009        17.28575        -1.57588
O         11.47121         3.24280         1.59312
H         11.47519         4.13001         2.02913
O         19.42063        13.59155         1.51004
H         19.57655        14.32093         2.14569
O         22.32014        10.22201        -2.60839
H         23.07598         9.66554        -2.92161
O         22.98004         3.83869         1.14192
H         23.66128         3.41210         1.70264
O         11.42217        10.85472         1.91532
H         10.56503        10.98468         2.37889
O         24.64670        13.03175        -1.66598
H         25.50251        13.44628        -1.90729
O          3.08836        12.49141        -1.92284
H          2.51661        13.00777        -2.52918
O          9.63811         5.80690        -1.56604
H         10.41937         5.29074        -1.94964
O         22.53194         3.90609        -2.48349
H         21.82258         4.28111        -3.04608
O         18.35088        10.79404        -2.74524
H         18.42083         9.88115        -3.10221
O         27.05019        17.12750         2.48980
H         26.20107        17.54006         2.75582
O         15.83149        11.93785        -2.42548
H         16.69805        11.59769        -2.76609
O         11.98085        12.67854        -2.11386
H         12.83571        12.87338        -2.55696
O         14.28075         6.22640         1.36672
H         13.56185         6.30892         2.03460
O         15.75721         3.54321        -2.74087
H         14.96695         2.99930        -2.95329
O         11.02439        20.62223         0.02378
H         11.00386        20.54377         1.00224
O          7.84853        10.06997         2.70512
H          7.01883        10.21087         3.21999
O         28.48410         6.77075        -2.05499
H         28.84233         5.99607        -2.54659
O          7.43990        17.15998        -2.11900
H          7.70129        16.26756        -2.43491
O         19.95961        13.34086        -2.09278
H         19.80498        12.58258        -2.69975
O         14.13901         5.99988        -2.26959
H         14.51183         5.31642        -2.86999
O          4.77804         8.42569         3.15034
H          5.05687         9.29792         3.51099
O          3.61288        16.59192         1.32038
H          4.32498        16.04869         1.71856
O         16.19458        10.91729         1.08654
H         16.18540        10.04717         1.53867
O         30.49413        16.53709         2.53563
H         31.23067        16.13268         3.03856
H          0.40055         1.43830         1.10675
H          0.39011         3.89801         0.87013
H          2.55098         0.18943         1.09807
H          0.72064         5.57715        -0.37073
H          0.76642         7.98412        -0.79812
H          0.40064         9.89968        -0.38899
H          0.35638        12.27236        -0.90334
H          0.27831        14.22039         0.14900
H          0.14520        16.68648         0.09567
H          1.37672        18.98061        -0.18001
H          4.91169         0.28436         0.58299
H          3.48743        20.18545         0.04347
H          7.33067         0.28566         0.13008
H          5.93747        20.21585         0.18333
H          9.69324         0.30898        -0.51929
H          8.36845        20.26027         0.39623
H         12.20558         0.29215        -0.79969
H         10.70933        19.36607        -1.58420
H         14.69408         0.26319        -0.69545
H         13.45458        20.33506        -0.34500
H         17.16071         0.30445        -0.59448
H         15.95990        20.32279        -0.15070
H         19.59369         0.30026        -0.60270
H         18.45035        20.28514         0.01120
H         22.07134         0.27132        -0.52109
H         20.90946        20.25902         0.13023
H         24.54307         0.27072        -0.12761
H         23.37352        20.26126         0.24339
H         26.92096         0.31475         0.46251
H         25.85816        20.24670         0.14677
H         29.31659         0.29349         0.91156
H         28.29315        20.28232         0.44163
H         31.47818         1.46227         1.18108
H         32.78409         3.59452         1.10260
H         32.86885         6.03090         0.89077
H         33.01576         7.95286         0.38694
H         32.98425        10.37687         0.61412
H         32.95806        12.23181         0.95408
H         32.92655        14.65595         1.19065
H         32.99909        16.59447         0.78257
H         30.76793        20.28697         0.64892
H         32.92504        19.03081         0.50137
