         220
 CSIRO Nanostructure Databank - Neutral Graphene Oxide Data Set
C        -11.23464         0.51355        -0.69610
C        -10.13269         1.36262        -0.21292
C         -8.86544         0.60051         0.24370
C         -7.58916         1.31147         0.03890
C         -6.32218         0.66166         0.48837
C         -5.00751         1.42169         0.64335
C         -3.74125         0.65805         0.77634
C         -2.48053         1.41443         0.78583
C         -1.28164         0.72124         0.68593
C          0.00387         1.42742         0.79932
C          1.29342         0.68704         0.68083
C          2.48629         1.42009         0.14769
C          3.82173         0.69482         0.03728
C          4.95812         1.45011         0.73581
C          6.27618         0.73121         0.75947
C          7.52480         1.48398         0.45076
C          8.71373         0.73603         0.07964
C          9.91293         1.47457        -0.25319
C         11.10687         0.74141        -0.59536
C        -10.01915         2.77429        -0.64997
C         -8.77361         3.37236        -0.79425
C         -7.64234         2.46972        -0.67036
C         -5.80087         3.57752        -0.42866
C         -4.86688         2.87056         0.34239
C         -3.69698         3.59760         0.68887
C         -2.50704         2.86677         0.83880
C         -1.27693         3.62677         0.58737
C         -0.00462         2.88061         0.46874
C          1.27052         3.62528         0.66562
C          2.49137         2.90781         0.21128
C          3.74618         3.67077         0.28740
C          4.96064         2.95133         0.67660
C          6.29212         3.68575         0.54892
C          7.51337         2.87552         0.32870
C          8.69861         3.60431        -0.07499
C          9.89923         2.86435        -0.29327
C         -8.51034         4.77891        -1.02945
C         -7.32024         5.50600        -0.77893
C         -6.08547         4.93300        -0.29032
C         -5.03775         5.72477         0.37918
C         -3.71319         5.05709         0.57132
C         -2.53455         5.78741         0.55526
C         -1.25477         5.10899         0.59275
C         -0.06932         5.78068         0.38251
C          1.24224         5.11751         0.53759
C          2.48154         5.78360         0.08211
C          3.72620         5.05457         0.13711
C          4.99177         5.76826        -0.02248
C          6.22966         5.08360         0.07479
C          7.44519         5.75216        -0.23598
C          8.66200         4.99330        -0.26853
C         -7.29545         6.94043        -0.99266
C         -6.21611         7.74399        -0.67239
C         -5.10514         7.23349         0.16444
C         -3.84142         8.03023         0.26348
C         -2.50765         7.26821         0.47391
C         -1.28995         7.94243         0.03388
C         -0.08349         7.12058        -0.30284
C          1.22216         7.86763        -0.25397
C          2.43354         7.14321        -0.25940
C          3.67693         7.79916        -0.79999
C          4.96837         7.13344        -0.37939
C          6.18527         7.83692        -0.55901
C          7.40701         7.14302        -0.50443
C         -6.11297         9.11497        -1.12226
C         -4.97092         9.85766        -0.99438
C         -3.75577         9.33474        -0.40967
C         -2.53733         9.98902        -0.48926
C         -1.28341         9.30713        -0.27103
C         -0.02047         9.96381        -0.50931
C          1.20234         9.28440        -0.44919
C          2.47998         9.97688        -0.54677
C          3.66926         9.30144        -0.63386
C          4.95051         9.96771        -0.74919
C          6.12650         9.27793        -0.76906
C        -11.14108        -0.84088        -0.68984
C         -9.92130        -1.56419        -0.36214
C         -8.76741        -0.85436         0.03858
C         -7.48584        -1.51569         0.15169
C         -6.29668        -0.81600         0.42736
C         -4.99860        -1.50512         0.63552
C         -3.74945        -0.70916         0.96535
C         -2.45501        -1.40616         0.99596
C         -1.25805        -0.75381         0.35511
C          0.05902        -1.46477         0.69305
C          1.27261        -0.78721         0.58789
C          2.51785        -1.47846         0.50337
C          3.75134        -0.77538         0.39372
C          4.97005        -1.47541         0.35118
C          6.25000        -0.76474         0.57591
C          7.53675        -1.48043         0.26177
C          8.73166        -0.66560        -0.03773
C          9.89375        -1.37304        -0.49170
C         11.10051        -0.61723        -0.71501
C         -9.85461        -2.95746        -0.60999
C         -8.67356        -3.68588        -0.38789
C         -7.49067        -2.97256         0.07189
C         -6.39537        -3.69101         0.50384
C         -5.11943        -3.02378         0.78839
C         -4.08582        -3.86982         1.43908
C         -2.27598        -2.68185         1.43230
C         -1.23506        -3.60706         0.85271
C          0.08887        -2.88373         0.81586
C          1.28370        -3.59899         0.63057
C          2.50428        -2.90849         0.47623
C          3.73615        -3.60670         0.16530
C          4.98053        -2.87144         0.10053
C          6.21460        -3.52099        -0.24313
C          7.44864        -2.86343        -0.23503
C          8.65767        -3.52990        -0.64296
C          9.85696        -2.75795        -0.72051
C         -8.58111        -5.07611        -0.66764
C         -7.43214        -5.82538        -0.35107
C         -6.38065        -5.16667         0.45035
C         -5.05500        -5.90534         0.63327
C         -3.85550        -5.15482         1.06164
C         -2.56048        -5.86664         1.30607
C         -1.24137        -5.07013         1.35772
C          0.15212        -5.75966         1.36870
C          1.16612        -5.09862         0.40567
C          2.53161        -5.76690         0.49304
C          3.70728        -4.99057         0.02660
C          4.86270        -5.69168        -0.52351
C          6.17578        -4.89267        -0.75807
C          7.42593        -5.65321        -0.91772
C          8.63638        -4.91871        -0.90684
C         -7.23551        -7.17081        -0.71671
C         -6.01127        -7.86210        -0.51607
C         -4.88607        -7.23698         0.06972
C         -3.61527        -7.89450         0.24288
C         -2.52373        -7.29195         0.88295
C         -1.25044        -8.04403         1.07037
C          0.07464        -7.30332         1.18778
C          1.37398        -8.11987         0.85328
C          2.61979        -7.25437         0.57754
C          3.85160        -8.00650         0.06911
C          4.98746        -7.12944        -0.43489
C          6.12137        -7.75811        -0.95756
C          7.32979        -7.03506        -1.16838
C         -5.88034        -9.23322        -0.96475
C         -4.72067        -9.91230        -0.78522
C         -3.55399        -9.30334        -0.16728
C         -2.45195       -10.06330         0.07315
C         -1.17583        -9.52845         0.64543
C         -0.06980        -9.77933        -0.34771
C          1.17429        -9.16895        -0.23590
C          2.24703        -9.64530        -0.99816
C          3.53859        -8.91018        -1.13224
C          4.77820        -9.74743        -1.40917
C          5.99928        -9.18789        -1.28037
O          0.82194         1.15328         2.00053
O          2.90360        -6.44207         1.76138
O          7.04123        -1.38591         1.64869
O          1.67775        -8.88275         2.04518
H          1.81636        -8.23043         2.76700
O         -3.20667         7.96597         1.55971
O         -1.41603        -3.65219        -0.58074
O         -6.09418        -5.86154         1.70631
O         -6.49964         2.84468        -1.38037
O         -1.93321        -5.44518         2.57167
O          5.62635         3.52867         1.84317
O         -3.21971        -3.21238         2.30909
O          1.39341         4.41954         1.85627
O         -9.80740         1.11693         1.21442
O          3.33927        -7.99913        -2.25943
H          3.22042        -8.53259        -3.07272
O         -4.64566        -2.41094        -0.48436
O         -0.82700       -10.33481         1.79731
H         -0.03138        -9.90888         2.20530
O          4.32829        -8.83825         1.14159
H          4.24431        -8.32530         1.97316
O          4.22558         0.70379        -1.36319
H          3.54398         1.22217        -1.85875
O          5.23357        -5.12360        -1.83756
O          3.60891         7.57041        -2.26074
H          4.37844         8.03069        -2.65950
O         -1.34774        -0.91407        -1.08832
H         -1.44499        -1.90094        -1.22374
O          0.68162        -5.29631        -0.93846
H         -0.11838        -4.68640        -1.04855
O         -0.69470         3.18186        -0.76565
O          0.65680        -5.53164         2.69427
H         -0.03038        -5.87206         3.31225
O          2.20548         2.19469        -1.06963
O         -0.24956         6.78584        -1.74593
H          0.60812         6.43224        -2.06908
O          5.50003         0.99648         1.99254
O         -5.90038         1.19174         1.81121
O         -5.51418         6.62810         1.42514
O         -0.59737        -7.84143         2.36478
H         12.01294        -1.15526        -1.01041
H         12.02643         1.31081        -0.79532
H         10.81533         3.40717        -0.57048
H          9.59544         5.51323        -0.53133
H          8.34756         7.68476        -0.68383
H          7.07724         9.82186        -0.87076
H          4.96001        11.06632        -0.81724
H          2.47669        11.07841        -0.54131
H         -0.02333        11.04754        -0.69991
H         -2.50194        11.00017        -0.92336
H         -4.94396        10.87918        -1.40179
H         -6.98449         9.55204        -1.63195
H         -8.13864         7.39031        -1.54029
H         -9.39188         5.39039        -1.28556
H        -10.94318         3.33472        -0.86088
H        -12.13811         1.00046        -1.09369
H        -11.99161        -1.43937        -1.05011
H        -10.75171        -3.47939        -0.97534
H         -9.43198        -5.57595        -1.15553
H         -8.04720        -7.69990        -1.23941
H         -6.74801        -9.71908        -1.43370
H         -4.63570       -10.96145        -1.10418
H         -2.45960       -11.13136        -0.19226
H         -0.18740       -10.61238        -1.05819
H          2.05936       -10.48986        -1.68200
H          4.66522       -10.79380        -1.73098
H          6.91122        -9.75985        -1.50945
H          8.23491        -7.59252        -1.45331
H          9.58334        -5.43867        -1.11542
H         10.78288        -3.26334        -1.03420
