         236
 CSIRO Nanostructure Databank - Neutral Graphene Oxide Data Set
C        -11.15155         0.56218        -0.04837
C         -9.83263         1.24704        -0.33332
C         -8.73462         0.60929         0.46466
C         -7.55398         1.41113         0.88749
C         -6.26648         0.68003         1.10195
C         -4.97763         1.42654         1.21942
C         -3.77138         0.64361         0.79270
C         -2.53386         1.08949         1.12404
C         -1.29950         0.68429         0.50972
C         -0.07099         1.58217         0.36342
C          1.21562         0.79934         0.70384
C          2.50894         1.54103         0.58773
C          3.73373         0.78553         0.17118
C          5.04114         1.54968         0.31241
C          6.23693         0.89464        -0.39038
C          7.54035         1.62535        -0.25090
C          8.79277         0.87260        -0.15207
C          9.95299         1.56244         0.20186
C         11.14605         0.78214         0.50765
C         -9.79840         2.75909        -0.33974
C         -8.65450         3.47968        -0.13589
C         -7.46142         2.87001         0.52503
C         -6.12508         3.51489         0.44631
C         -4.97746         2.92137         0.95320
C         -3.72094         3.68955         0.96243
C         -2.49489         3.23867         1.40674
C         -1.18514         3.81857         1.12872
C         -0.05269         3.04716         0.88521
C          1.25287         3.71414         0.73182
C          2.43468         3.03457         0.51145
C          3.69587         3.76589         0.19038
C          4.95708         3.02003        -0.11437
C          6.29014         3.77852        -0.23384
C          7.47929         3.01259         0.38279
C          8.78224         3.76123         0.18390
C          9.95830         2.99952         0.24044
C         -8.56565         4.88895        -0.45576
C         -7.35921         5.53986        -0.52976
C         -6.06211         4.75627        -0.43252
C         -4.88164         5.64888        -0.16339
C         -3.75337         5.12166         0.58978
C         -2.49228         5.95740         0.72731
C         -1.19210         5.33797         1.29403
C          0.07226         5.96667         0.77623
C          1.31459         5.18760         1.17420
C          2.61226         5.91482         0.83537
C          3.81031         5.20833         0.46490
C          5.03448         5.91203         0.29365
C          6.26600         5.21900         0.19959
C          7.51173         5.90632         0.15326
C          8.73567         5.16569         0.13237
C         -7.28632         6.93201        -0.89589
C         -6.09460         7.61493        -1.00154
C         -4.84921         6.96745        -0.59513
C         -3.61241         7.69958        -0.63522
C         -2.42385         7.18594        -0.09732
C         -1.17006         7.83994        -0.27835
C          0.05061         7.20228         0.15346
C          1.32221         7.85900        -0.24481
C          2.59869         7.39639         0.33068
C          3.84308         8.02123        -0.12240
C          5.04532         7.34778         0.10304
C          6.30436         8.03486        -0.05820
C          7.50145         7.33415         0.05410
C         -6.04581         9.03110        -1.33012
C         -4.87574         9.67927        -1.50578
C         -3.56564         8.93623        -1.49939
C         -2.36649         9.78416        -1.21867
C         -1.15899         9.19801        -0.81377
C          0.04087         9.95276        -0.86927
C          1.33362         9.30279        -0.79504
C          2.59610        10.04985        -0.73187
C          3.80761         9.40977        -0.51957
C          5.08082        10.09891        -0.58373
C          6.25758         9.45072        -0.34832
C        -11.19871        -0.75252         0.27441
C         -9.98408        -1.53047         0.51235
C         -8.77169        -0.74864         0.65334
C         -7.51466        -1.44588         0.99853
C         -6.32319        -0.69382         0.45017
C         -5.03713        -1.46116         0.40135
C         -3.84963        -0.62147        -0.02957
C         -2.53289        -1.36559        -0.01253
C         -1.30424        -0.59175        -0.02114
C         -0.03702        -1.35291         0.00835
C          1.22107        -0.69992         0.46184
C          2.55444        -1.45914         0.33581
C          3.75009        -0.56928         0.02215
C          5.06042        -1.35223        -0.05523
C          6.24974        -0.58344        -0.59362
C          7.55876        -1.32603        -0.66395
C          8.89147        -0.58925        -0.57416
C          9.91843        -1.33976         0.25080
C         11.10255        -0.57775         0.60324
C         -9.95679        -2.90845         0.66180
C         -8.74098        -3.67582         0.84949
C         -7.48642        -2.92921         1.13046
C         -6.13828        -3.65728         1.10540
C         -4.99552        -2.80527         0.53872
C         -3.70113        -3.50687         0.36404
C         -2.51594        -2.73990        -0.06281
C         -1.33065        -3.46665        -0.56667
C         -0.02262        -2.71575        -0.58219
C          1.21650        -3.46717        -0.50983
C          2.45916        -2.63859        -0.67756
C          3.70991        -3.47605        -0.64364
C          4.95262        -2.72522        -0.71495
C          6.28852        -3.51619        -0.70382
C          7.51170        -2.77878        -0.36513
C          8.58001        -3.43819         0.22099
C          9.77766        -2.66969         0.54812
C         -8.67523        -5.04552         0.67708
C         -7.40837        -5.74979         0.50721
C         -6.23059        -5.02758         0.47692
C         -5.02039        -5.65763        -0.16474
C         -3.70223        -4.98317         0.15876
C         -2.47976        -5.66810        -0.33803
C         -1.27059        -4.94549        -0.58980
C         -0.07372        -5.62557        -0.79784
C          1.18359        -4.85866        -0.95085
C          2.48101        -5.58618        -1.13901
C          3.73251        -4.85303        -0.77992
C          4.94638        -5.57317        -0.48879
C          6.17314        -4.93209        -0.35410
C          7.33286        -5.59307         0.20660
C          8.48370        -4.85624         0.47466
C         -7.36858        -7.18685         0.24483
C         -6.17646        -7.89780         0.17363
C         -4.94150        -7.13119         0.13059
C         -3.68850        -7.68599         0.18731
C         -2.50520        -7.04677        -0.34027
C         -1.33321        -7.80360        -0.83535
C         -0.02912        -7.07676        -0.81028
C          1.15530        -7.78317        -0.93460
C          2.48697        -7.11410        -1.27709
C          3.60923        -7.76667        -0.48157
C          4.82747        -6.99017        -0.09879
C          6.05672        -7.70797         0.30774
C          7.22818        -7.01604         0.48257
C         -6.17733        -9.33216        -0.13227
C         -5.13979       -10.17502        -0.43432
C         -3.72288        -9.84957        -0.28029
C         -2.61844       -10.18427        -0.99885
C         -1.35144        -9.35392        -0.99727
C         -0.05462        -9.96398        -0.74689
C          1.16232        -9.23762        -0.76181
C          2.36786        -9.92008        -0.50779
C          3.72351        -9.27689        -0.63331
C          4.79899        -9.83498         0.27128
C          5.89569        -9.12308         0.61794
O          5.22189         1.49420         1.71062
O         -3.45933        -4.45245         1.48481
O          2.70894         7.06200         1.72896
O         -0.00283         1.76435        -1.09072
H          0.76060         2.34525        -1.30036
O          1.84900        -5.00635        -2.34182
O         -4.05314        -0.23500        -1.44450
H         -3.65977        -0.93229        -2.01244
O         -1.22662         5.58483         2.73079
H         -2.18253         5.65804         2.98035
O          4.15772        -9.58097        -1.99629
H          3.62591        -9.01306        -2.60651
O          3.69766        -7.25926         0.86819
O         -5.18027        -5.45287        -1.61190
H         -5.98048        -5.94599        -1.89269
O         -6.68188        -0.43041        -0.95119
H         -5.83343        -0.22032        -1.42671
O         -7.50110        -2.04240         2.32101
O         -0.81450        -2.85534        -1.81704
O         -3.50547         6.02484         1.77902
O         -2.43166         2.05133         2.12552
O          1.37184         5.07675         2.61945
H          0.45730         5.12103         2.98861
O          7.34792         2.92270         1.80586
H          6.54002         2.35473         2.02689
O          6.56854         3.97196        -1.64805
H          5.70630         3.90279        -2.12128
O          1.93558         1.11935         1.90718
O         -5.84430         4.19888        -1.78613
H         -5.92745         4.93957        -2.42471
O          9.42210        -0.52021        -1.93153
H          8.64682        -0.34676        -2.51577
O          2.81798        -2.06362         1.62857
H          2.38751        -1.51060         2.31722
O          2.73229        -7.40189        -2.67991
H          2.24787        -6.70901        -3.19105
O          5.44196        -1.63936         1.32414
H          4.60828        -1.83518         1.82313
O          5.66070        -3.06255        -1.93592
O          1.42440         8.07798        -1.67240
O          0.38537        -1.39723         1.44139
O          2.36084        -2.01452        -1.99002
H          2.25696        -2.74166        -2.64549
O          6.81230         1.55797        -1.53424
O         -3.37850         8.45831        -2.89665
H         -2.46824         8.09640        -2.95992
O         -9.51351         0.89933        -1.74553
H         -8.61165         0.50500        -1.76153
O         -5.79074        -3.92513         2.48841
H         -6.12751        -3.16291         3.01614
O         -1.45327        -8.44595        -2.15510
O          6.80317        -0.95478        -1.87368
O         -5.64992         0.85487         2.40095
O         -7.82395         2.42550         1.89252
O          4.08634         3.35017        -1.22996
O         -3.49720        -8.93743         0.77017
H         11.98185        -1.12717         0.97273
H         12.06533         1.32323         0.77519
H         10.93309         3.51108         0.29449
H          9.68055         5.72919         0.06048
H          8.45857         7.87138        -0.02445
H          7.20904         9.99847        -0.41860
H          5.08119        11.16900        -0.83753
H          2.56940        11.13515        -0.90695
H         -0.01038        11.03602        -1.05141
H         -2.35268        10.81464        -1.60598
H         -4.86301        10.75232        -1.74865
H         -7.00081         9.57245        -1.41158
H         -8.23174         7.46336        -1.08681
H         -9.49363         5.43287        -0.69338
H        -10.66473         3.27016        -0.79042
H        -12.08420         1.11993        -0.22355
H        -12.16995        -1.25859         0.38801
H        -10.89641        -3.47232         0.54973
H         -9.60175        -5.61150         0.49343
H         -8.32572        -7.72820         0.19030
H         -7.18841        -9.75425        -0.26413
H         -5.39391       -11.17333        -0.82513
H         -2.70075       -10.89864        -1.83247
H         -0.02668       -11.02022        -0.43880
H          2.32768       -11.01290        -0.37271
H          4.73219       -10.89921         0.54431
H          6.70443        -9.61383         1.18195
H          8.12537        -7.54460         0.83987
H          9.35507        -5.36565         0.91291
H         10.59189        -3.18937         1.07747
