         720
 CSIRO Nanostructure Databank - Neutral Graphene Oxide Data Set
C         22.93031        27.31994        -0.07408
C         23.00130        28.71050        -0.22617
C         22.97996        31.71979         0.41449
C         22.99921        33.06160         0.58963
C         22.87513        36.02904         0.79969
C         22.82105        37.39205         0.80033
C         22.88578        40.29929         0.19905
C         22.91580        41.58568        -0.21832
C         22.90221        44.61144        -0.32471
C         22.91348        45.94370        -0.08953
C         25.17433        24.46275         0.79130
C         24.02911        25.13574         0.52276
C         25.20285        27.28348         0.80153
C         24.03283        26.57896         0.39411
C         25.04743        28.68029         0.97252
C         24.07214        29.45053         0.31857
C         25.48718        31.72484         0.51537
C         24.21530        30.95952        -0.00985
C         25.41822        33.22256         0.12351
C         24.18909        33.86701         0.39843
C         25.29653        36.04785         0.66807
C         24.13212        35.30860         0.60605
C         25.23296        37.43304         1.27355
C         24.02930        38.19478         0.77170
C         25.41605        40.17888         0.10219
C         24.08590        39.53712         0.47310
C         25.42178        41.69082         0.07655
C         24.17970        42.32892        -0.39278
C         25.41949        44.55921        -0.13087
C         24.16243        43.86129        -0.46241
C         25.39600        46.00834        -0.10185
C         24.15324        46.69104        -0.06053
C         25.32079        48.81430        -0.15229
C         24.13762        48.09926        -0.04055
C         27.85970        22.99503         1.37809
C         27.81564        24.39530         0.94551
C         26.47846        25.15618         0.73868
C         27.73903        27.28840         0.77741
C         26.49075        26.62254         0.88528
C         27.86438        28.69987         0.43983
C         26.91768        29.67485         0.80279
C         27.82911        31.26633        -0.66962
C         26.75944        30.92210         0.16919
C         27.80452        33.55214        -0.58174
C         26.57331        34.01955        -0.07990
C         27.84873        36.01766         0.75086
C         26.56597        35.51921         0.09506
C         27.87339        37.43295         1.17897
C         26.56043        38.19376         1.22984
C         27.83306        40.25502         0.72738
C         26.62605        39.59224         0.78445
C         27.85827        41.76752         0.73248
C         26.57676        42.41973         0.25269
C         27.90078        44.59286         0.32082
C         26.58598        43.85883         0.11162
C         27.88000        46.02334        -0.18556
C         26.60873        46.73666        -0.18390
C         27.79767        48.88690        -0.50262
C         26.56403        48.15219        -0.26853
C         27.85096        50.25451        -0.50538
C         30.31119        23.10652         1.53161
C         29.05060        22.40585         1.66107
C         30.27658        24.50659         1.36380
C         29.03760        25.18727         1.16304
C         30.22209        27.22772         0.52853
C         28.98622        26.57372         0.88523
C         30.13063        28.27293        -0.38855
C         28.99629        29.15015        -0.29335
C         30.28268        31.27089        -0.82666
C         29.04173        30.51532        -0.70502
C         30.28988        33.53580        -0.66079
C         29.04573        34.15623        -0.29691
C         30.33434        35.94604         0.95197
C         29.03678        35.37345         0.49546
C         30.39800        37.45511         1.25788
C         29.11635        38.18715         0.93996
C         30.38185        40.36883         0.91763
C         29.09683        39.55423         0.86977
C         30.33159        41.57302        -0.03477
C         29.08292        42.37854         0.11937
C         30.35200        44.50812        -0.35520
C         29.02570        43.78222        -0.40027
C         30.34393        45.94969        -0.49510
C         29.05925        46.66462        -0.46517
C         30.28946        48.87369        -0.62592
C         29.02088        48.10504        -0.94546
C         30.25617        50.33713        -0.90585
C         29.05949        50.97815        -0.80602
C         32.68230        20.23162         1.11505
C         31.55018        20.94920         1.36057
C         32.79074        23.05322         1.23130
C         31.56131        22.38762         1.43256
C         32.87522        24.51934         1.37279
C         31.53686        25.26610         1.42869
C         32.81677        27.50253         0.91906
C         31.51483        26.72559         1.06373
C         32.84224        28.94003         0.47264
C         31.67627        29.84022         0.76450
C         32.69796        31.74836        -0.39254
C         31.49275        30.96546        -0.22637
C         32.73732        33.14543        -0.31957
C         31.51858        33.92938        -0.16180
C         32.86951        35.92974         0.45557
C         31.59444        35.21249         0.57727
C         32.88987        37.38574         0.87409
C         31.58182        38.08444         0.49397
C         32.82641        40.25203         0.36464
C         31.65330        39.58648         0.63065
C         32.84909        41.71253         0.20647
C         31.60918        42.39965         0.05924
C         32.81096        44.57826        -0.13267
C         31.54893        43.79778        -0.17999
C         32.82241        45.89375        -0.88492
C         31.53688        46.64738        -0.65708
C         32.85724        48.80686        -0.88714
C         31.58319        48.11975        -0.60780
C         32.85523        50.23398        -1.23070
C         31.52480        51.03703        -1.21523
C         32.85488        53.10084        -1.10817
C         31.64825        52.46746        -0.98148
C         35.23006        18.70659         0.95638
C         35.13498        20.13991         0.83951
C         33.95097        20.87498         0.91232
C         35.14854        23.05147         0.56056
C         33.98213        22.33506         0.90731
C         35.17918        24.47464         0.49311
C         34.08035        25.24597         0.90115
C         35.18622        27.32891         0.20649
C         34.06942        26.70004         0.72086
C         35.14893        28.70880        -0.32121
C         33.93348        29.51788        -0.09308
C         35.24988        31.64752        -0.49803
C         33.93211        30.92545        -0.69926
C         35.23873        33.09183        -0.31012
C         34.00987        33.81101        -0.18364
C         35.30037        35.90266         0.15999
C         34.03438        35.22769         0.10446
C         35.32459        37.34769         0.45404
C         34.08674        38.13595         0.36543
C         35.34412        40.23740         0.05995
C         34.09250        39.50959         0.25021
C         35.33687        41.66278        -0.06747
C         34.09649        42.37477         0.05655
C         35.35485        44.55165        -0.40835
C         34.12188        43.84433        -0.01577
C         35.32247        45.97309        -0.59412
C         34.09597        46.68304        -0.66647
C         35.32293        48.84325        -0.91953
C         34.07319        48.10814        -0.81278
C         35.33986        50.25794        -1.02195
C         34.11466        50.99663        -1.13611
C         35.35753        53.17634        -1.49461
C         34.09073        52.39481        -1.21249
C         35.42105        54.57108        -0.90498
C         37.71875        18.73352         1.45858
C         36.40236        18.05050         1.15630
C         37.69785        20.21975         1.05220
C         36.39749        20.91150         0.78945
C         37.67427        22.96500         0.23558
C         36.33957        22.25095         0.06192
C         37.69896        24.43994         0.07922
C         36.37339        25.14785        -0.18541
C         37.67800        27.31171        -0.40119
C         36.51377        26.60774         0.26780
C         37.71683        28.68522        -0.55550
C         36.43345        29.43815        -0.63790
C         37.71928        31.58870        -0.66389
C         36.43527        30.92651        -0.58640
C         37.69854        33.07350        -0.67017
C         36.46814        33.78620        -0.25165
C         37.76660        35.92766         0.00885
C         36.50541        35.20245        -0.01800
C         37.82398        37.30926         0.04651
C         36.61445        38.09496         0.33124
C         37.80036        40.21673        -0.16241
C         36.57527        39.54260         0.05385
C         37.78287        41.61814        -0.37906
C         36.57330        42.35872        -0.30696
C         37.77763        44.53212        -0.63441
C         36.57262        43.82016        -0.46957
C         37.81894        45.96655        -0.76217
C         36.56221        46.70217        -0.75371
C         37.79749        48.84043        -1.11017
C         36.54063        48.09233        -0.93828
C         37.78074        50.28642        -0.83907
C         36.59407        50.99314        -0.94488
C         37.80735        53.14995        -1.12741
C         36.62986        52.43875        -1.11584
C         37.81517        54.62518        -1.52979
C         36.57253        55.25277        -0.92351
C         39.93320        16.17725        -0.48270
C         38.85819        16.83561         0.20802
C         40.18605        18.77549         1.05087
C         38.95398        18.02704         0.91012
C         40.15517        20.19172         0.80227
C         38.95872        20.84896         0.60070
C         40.20131        22.96920        -0.06887
C         38.91664        22.16807        -0.12243
C         40.13137        24.36691        -0.46476
C         38.94725        25.07999        -0.41621
C         40.16733        27.28017        -1.04190
C         38.84833        26.50943        -0.78362
C         40.18530        28.71542        -0.73494
C         38.96095        29.41383        -0.69171
C         40.21751        31.56615        -0.80011
C         38.91103        30.86767        -0.70442
C         40.27939        33.06718        -0.73048
C         38.99599        33.83143        -0.65884
C         40.30797        35.88005        -0.00193
C         39.02220        35.11017         0.15725
C         40.28363        37.32239         0.04013
C         39.06404        38.04647         0.00007
C         40.29510        40.15783        -0.07006
C         39.06235        39.47419        -0.08848
C         40.42432        41.59763        -0.53998
C         39.06219        42.29865        -0.70900
C         40.29302        44.56599        -0.45924
C         39.04694        43.79016        -0.77599
C         40.31812        45.88634        -1.22204
C         39.03978        46.63781        -0.89961
C         40.31210        48.77948        -0.45500
C         39.10055        48.09263        -1.06289
C         40.31940        50.26866        -0.67832
C         39.04241        50.96992        -0.57156
C         40.35887        53.14486        -0.94705
C         39.06113        52.51541        -0.71096
C         40.38308        54.57142        -1.32449
C         39.12100        55.32974        -1.19755
C         40.39339        57.40417        -0.87718
C         39.19803        56.71025        -0.96226
C         42.43487        16.09108        -0.85521
C         41.23691        16.26048        -0.05222
C         42.65425        18.69841         0.70710
C         41.45217        18.11652         1.06056
C         42.71314        20.16721         0.67303
C         41.42336        20.94799         0.67960
C         42.69206        23.01262        -0.06987
C         41.40934        22.33388         0.14186
C         42.69310        24.32568        -0.50629
C         41.41806        25.01037        -0.82882
C         42.73781        27.19422        -0.61031
C         41.45109        26.50513        -1.05341
C         42.67266        28.69581        -0.79015
C         41.47766        29.36945        -0.65937
C         42.70055        31.61681        -0.62183
C         41.44279        30.83584        -0.28202
C         42.69507        33.03914        -0.18889
C         41.52063        33.73915        -0.25519
C         42.78254        35.85467         0.07412
C         41.50351        35.17583        -0.04876
C         42.75279        37.30405         0.35486
C         41.49198        38.03210         0.17693
C         42.75573        40.14482         0.26528
C         41.49516        39.43608         0.15518
C         42.68114        41.56611         0.64077
C         41.45835        42.39228         0.30589
C         42.80643        44.62181        -0.05978
C         41.49757        43.91075         0.12832
C         42.90549        45.95928        -0.70740
C         41.63081        46.68391        -1.09071
C         42.80199        48.83615        -0.57141
C         41.63110        48.13382        -0.80475
C         42.72610        50.26537        -0.29242
C         41.50333        50.97971        -0.59347
C         42.81300        53.08761        -0.66623
C         41.53290        52.42929        -0.72754
C         43.00225        54.55619        -1.00896
C         41.70126        55.29137        -1.34918
C         42.85488        57.39567        -0.49610
C         41.71994        56.82597        -1.31104
C         43.58534        16.77705        -0.64938
C         45.12886        18.61924         0.14187
C         43.86923        17.80231         0.44113
C         45.14606        20.03022         0.70466
C         43.94323        20.78750         0.06620
C         45.16248        22.96663         0.09789
C         43.95812        22.30215         0.13017
C         45.24799        24.32486        -0.47783
C         43.96179        25.00065        -0.88202
C         45.27606        27.19361        -0.81695
C         43.97317        26.49819        -1.22463
C         45.27091        28.65927        -1.03004
C         43.95675        29.40600        -1.01870
C         45.27716        31.55025        -0.56305
C         43.98702        30.89525        -0.84942
C         45.26064        32.96560        -0.12656
C         43.97934        33.71348         0.06802
C         45.29167        35.91774         0.31378
C         43.98002        35.18919         0.06761
C         45.28145        37.37195        -0.19051
C         44.04232        38.07458         0.29988
C         45.29726        40.26297        -0.00458
C         43.97743        39.53106         0.17287
C         45.21023        41.63349         0.61808
C         44.00146        42.11546         0.98438
C         45.27332        44.67297         0.17442
C         43.93064        44.23228         0.59077
C         45.33549        46.11640        -0.11790
C         44.12467        46.76831        -0.41025
C         45.36542        48.83873        -0.72945
C         44.11026        48.16975        -0.62573
C         45.53376        50.25930        -1.21254
C         43.76231        51.03206         0.24903
C         45.20239        53.11043        -0.01489
C         43.90351        52.41738        -0.12999
C         45.15961        54.49950         0.18988
C         43.78275        55.17104         0.17091
C         43.79888        56.67738         0.12074
C         47.49937        18.79678        -0.47170
C         46.25080        18.06739        -0.37652
C         47.63835        20.06227        -0.00221
C         46.46850        20.78509         0.53874
C         47.72244        22.98530        -0.01733
C         46.45507        22.27933         0.33881
C         47.69792        24.43483        -0.09777
C         46.50991        25.10018        -0.34056
C         47.73563        27.27448        -0.56330
C         46.46378        26.54087        -0.54673
C         47.71301        28.72055        -0.68510
C         46.51718        29.42163        -0.78669
C         47.75233        31.56835        -0.53355
C         46.48539        30.86316        -0.64935
C         47.79729        33.02853        -0.11393
C         46.50374        33.74929        -0.40949
C         47.79495        35.95754        -0.21226
C         46.50072        35.22777        -0.28984
C         47.80221        37.36800         0.08003
C         46.55500        38.10222         0.22067
C         47.72038        40.15139         0.97675
C         46.50928        39.45902         0.47444
C         47.73037        41.66077         1.21039
C         46.44493        42.41441         0.98725
C         47.73970        44.65956         0.69052
C         46.49220        43.85507         0.48521
C         47.79838        46.05498         0.16780
C         46.57909        46.77476        -0.16060
C         47.85142        48.90466        -0.52849
C         46.57244        48.15527        -0.49288
C         47.80338        50.36697        -0.27349
C         46.60346        51.04584        -0.49142
C         47.66534        53.14718         0.21693
C         46.46586        52.42654        -0.10393
C         47.57288        54.54340         0.46517
C         46.36022        55.20575         0.41378
C         49.95864        20.17689         0.86246
C         48.96788        20.76944        -0.11838
C         50.19328        22.96230         0.11300
C         48.91126        22.28460        -0.01640
C         50.29143        24.45906        -0.03504
C         48.98003        25.18416        -0.07920
C         50.21506        27.27740        -0.72751
C         48.94639        26.60051        -0.49131
C         50.16111        28.72194        -0.77792
C         48.96629        29.43392        -0.69381
C         50.22864        31.65491        -0.53128
C         48.93403        30.88682        -0.65343
C         50.17640        33.14117        -0.85427
C         48.99581        33.82810        -0.57648
C         50.20571        36.02885        -0.81269
C         48.96553        35.25602        -0.53427
C         50.24741        37.43821        -0.32895
C         49.01945        38.07328         0.09137
C         50.33067        40.19997         0.60000
C         49.04969        39.41205         0.71324
C         50.34067        41.68081         0.86323
C         49.10240        42.40430         1.42052
C         50.27430        44.62981         0.67613
C         49.03254        43.91292         1.01549
C         50.23961        46.03114         0.51512
C         49.01101        46.72581         0.23133
C         50.24125        48.94183         0.41116
C         49.10541        48.16217        -0.14101
C         50.17412        50.31852         0.55737
C         48.96551        51.04664         0.21600
C         50.16874        53.16404         0.55444
C         48.91766        52.45381         0.33362
C         51.01808        20.90716         1.25852
C         53.21805        23.40966         0.32327
C         51.17103        22.27272         0.79647
C         52.92396        24.75579        -0.30507
C         51.46610        25.04982        -0.85261
C         52.62477        27.32801        -1.54817
C         51.40632        26.58304        -0.95349
C         52.69911        28.76444        -1.03032
C         51.36815        29.45190        -1.20879
C         52.53903        31.65431        -1.64752
C         51.31698        30.92728        -1.26833
C         52.40459        33.03604        -1.82846
C         51.36270        33.80936        -1.27186
C         52.80849        35.98462        -0.92019
C         51.48258        35.30680        -1.22944
C         52.72839        37.39278        -0.41313
C         51.43341        38.13866        -0.40409
C         52.65528        40.40453        -0.42620
C         51.32183        39.65932        -0.42602
C         52.70139        41.83225        -0.01481
C         51.50135        42.49985         0.41744
C         52.77593        44.62104         0.59644
C         51.49223        43.89171         0.51414
C         52.74955        46.11357         0.53982
C         51.44952        46.80910         0.60141
C         52.59069        48.89613         1.32114
C         51.42896        48.19380         0.71611
C         52.60838        50.36556         1.31018
C         51.26688        51.06954         1.31530
C         51.29780        52.52418         0.92610
C         55.56192        23.46425        -0.32662
C         54.45300        22.84832         0.35244
C         55.39846        24.60213        -1.04529
C         54.02899        25.19220        -1.32667
C         55.15234        27.46079        -1.52968
C         54.01147        26.70877        -1.37673
C         55.15370        28.93068        -1.62731
C         53.86039        29.54634        -1.63524
C         55.53842        31.97067        -1.89397
C         53.65001        30.86612        -2.05042
C         55.44228        33.36048        -1.51033
C         54.32945        34.16973        -1.72295
C         55.32110        36.03144        -0.36766
C         54.07390        35.42195        -1.04369
C         55.34618        37.55046        -0.42599
C         54.00452        38.17424        -0.27454
C         55.22646        40.40549        -0.32836
C         53.96922        39.64858        -0.45049
C         55.07472        41.74932        -0.53502
C         53.91844        42.50686        -0.14068
C         55.40798        44.74291         0.30377
C         54.09048        43.89127         0.39124
C         55.22234        46.01193         1.14515
C         54.01521        46.84655         0.85016
C         55.12055        48.94139         2.05099
C         53.87584        48.15950         1.56628
C         55.06717        50.34862         1.50119
C         53.86026        51.00801         1.31033
C         57.88894        24.66190        -1.63605
C         56.54802        25.27323        -1.68541
C         57.70080        27.54973        -1.69656
C         56.44797        26.78313        -1.81293
C         57.64742        28.93890        -1.41300
C         56.37991        29.65335        -1.50470
C         57.53109        31.66489        -0.43509
C         56.45441        31.09720        -1.34409
C         57.65692        33.18094        -0.48517
C         56.59781        33.94805        -0.88727
C         57.86896        36.07570        -0.45998
C         56.60316        35.44816        -1.01831
C         57.80757        37.54805        -0.16335
C         56.50475        38.25716        -0.32564
C         57.67909        40.37201         0.55566
C         56.61850        39.77387        -0.42844
C         57.78222        41.77083         0.82634
C         56.90207        42.75147         0.25694
C         57.67139        44.56963         1.60924
C         56.62773        43.97765         0.80707
C         57.67205        45.94923         1.83596
C         56.40438        46.69565         1.75742
C         57.49772        48.60812         2.88372
C         56.48569        48.22658         1.81580
C         58.99802        25.42235        -1.78183
C         60.14077        27.60218        -1.62923
C         58.93879        26.86797        -1.75112
C         60.10269        28.94646        -1.31645
C         58.87308        29.62853        -1.13761
C         60.00368        31.64589        -0.20925
C         58.86801        30.99059        -0.65173
C         59.98979        33.00379         0.21130
C         58.86829        33.80442         0.02032
C         59.84811        35.89903         0.96914
C         58.88990        35.24432         0.21257
C         59.78543        37.28812         1.25520
C         58.76896        38.11701         0.79886
C         59.60310        40.08096         2.05863
C         58.65535        39.52364         1.14725
C         59.65560        41.42161         2.35512
C         58.74476        42.32633         1.74586
C         59.85996        44.38878         2.70188
C         58.77661        43.73726         1.99933
C         59.93708        45.73941         2.83266
C         58.92214        46.67539         2.23653
C         58.60256        47.88099         3.09190
O         24.26650        43.03471        -1.67981
O         27.80135        32.42559        -1.41706
O         46.86488        42.09199         2.33264
O         48.80225        48.45730        -1.55045
O         53.35167        33.71440        -2.60330
O         50.99310        30.12071        -2.46889
O         41.62473        41.87036         1.63619
O         33.47186        44.54226         1.14770
O         52.87193        48.16522         2.62566
O         50.64758        35.97718        -2.22857
O         53.36729        37.63568         0.94584
O         30.23033        32.45288        -1.58012
O         58.44153        37.05496        -1.40067
O         38.59684        48.56678        -2.34857
O         41.43159        16.72327         1.26241
O         50.87162        40.67387         1.83258
O         48.25231        44.61287         2.05137
O         37.03782        21.03167         2.11063
O         30.96459        29.76493         1.74796
O         38.24301        33.78773        -1.87968
O         44.59958        29.04539        -2.28678
O         52.32229        22.89014         1.26216
O         42.26438        20.83489         1.89124
O         46.36238        34.56633        -1.61225
O         32.11135        50.55041        -2.46842
O         43.50280        37.63581         1.58254
O         26.00109        29.30602         1.79902
O         55.40504        45.96612         2.58262
O         44.95404        50.69730        -2.19159
O         48.42449        39.43220         2.02481
O         41.52536        25.60834        -2.17869
O         27.29845        37.87487         2.46065
O         43.21917        31.50783        -1.97621
O         35.62188        28.84003        -1.72895
O         38.96979        51.86109         0.59847
O         56.28244        25.89853        -2.99573
O         43.91375        43.34034         1.66222
O         30.90907        48.61160         0.66248
O         40.54291        44.64842         0.97427
O         39.04045        42.99014        -2.01329
O         39.30191        26.87558        -2.12717
O         53.57456        46.75523        -0.52471
O         42.55634        46.18513        -2.11952
O         37.79571        23.80756         1.40686
O         44.75201        33.14584         1.26038
O         56.21011        42.46446        -0.93295
O         32.30929        25.00096         2.63521
O         54.63390        31.48006        -2.84774
O         31.01943        35.15701         1.98207
O         49.83752        25.10821         1.17551
O         44.74617        24.26596        -1.88746
O         53.53831        44.05405         1.72631
O         45.96444        43.88146        -0.87787
O         32.11234        27.45188         2.19879
O         36.08944        37.71860         1.67656
O         41.15045        54.81473        -2.61584
O         40.45007        32.34985        -1.99654
O         46.66669        21.66943         1.68841
O         27.26655        24.64435        -0.40392
O         53.30027        40.08919        -1.70678
O         41.90595        57.30852        -2.67075
H         41.40499        56.68432        -3.24703
O         57.12344        31.31902         0.93363
H         57.80194        31.68373         1.54056
O         55.30094        35.64356         1.02129
H         54.56712        36.15088         1.44688
O         51.22877        24.43590        -2.13247
H         52.00997        24.58515        -2.71850
O         36.12578        25.10750        -1.60301
H         35.98561        24.16549        -1.85703
O         50.68876        39.99716        -1.69444
H         51.35497        39.83149        -2.40007
O         45.19329        37.38837        -1.63827
H         45.80899        36.71557        -2.00603
O         36.89780        26.57945         1.67557
H         36.36357        25.89325         2.13210
O         43.90282        20.47628        -1.35445
H         44.48830        21.09801        -1.83640
O         53.07606        25.68749         0.81137
H         52.41129        25.44607         1.49448
O         30.47671        40.88348         2.27940
H         30.59308        40.10430         2.86952
O         44.62107        50.48266         1.15612
H         45.23006        51.17180         1.49291
O         27.96613        42.07114         2.19388
H         28.83904        41.68830         2.48702
O         55.63744        45.16107        -1.04825
H         55.86946        44.36168        -1.57165
O         47.89822        32.98588         1.35510
H         47.02525        32.71011         1.71330
O         52.38759        27.38288        -2.97611
H         52.50496        26.47809        -3.33813
O         43.07511        54.79254         1.38432
H         43.47371        55.27949         2.13522
O         52.88944        28.69073         0.40422
H         53.35019        27.84834         0.61990
O         32.83242        45.50097        -2.30555
H         32.83210        46.31965        -2.84593
O         40.10844        48.57710         0.98836
H         40.76151        49.13029         1.46735
O         36.10616        22.06083        -1.35830
H         36.95773        21.77536        -1.77255
O         56.99058        48.64784         0.52999
H         57.92092        48.31990         0.45627
O         39.01513        34.62582         1.54534
H         38.99080        35.40635         2.13947
O         25.60006        39.80387        -1.31442
H         24.95189        40.31843        -1.84263
O         41.04206        41.49416        -1.84861
H         40.48733        42.01888        -2.47815
O         45.52855        35.94235         1.73754
H         45.27024        35.06482         2.09866
O         50.60093        31.60745         0.88157
H         49.87743        32.04925         1.38446
O         35.35936        53.34680        -2.95859
H         35.23932        52.46053        -3.36208
O         33.79346        30.70812        -2.14350
H         34.50672        30.06684        -2.40305
O         53.73355        24.73669        -2.68845
H         54.50911        25.03673        -3.22877
O         31.35995        37.82369        -0.92243
H         30.95388        38.62333        -1.32553
O         26.61086        36.10300        -1.27076
H         27.30553        35.62422        -1.77409
O         56.51293        35.74550        -2.42696
H         57.20608        36.42453        -2.61952
O         49.33631        42.41973         2.83025
H         48.51296        42.74151         3.26156
O         24.90217        37.21947         2.68373
H         25.76248        37.16328         3.16582
O         25.41083        31.83577         1.94812
H         25.53037        30.93960         2.34330
O         44.15384        17.09619         1.67397
H         44.33897        17.78660         2.35016
O         33.04859        37.41709         2.32328
H         33.99898        37.26964         2.52515
O         49.48283        20.46693        -1.45292
H         50.30616        20.98366        -1.58259
O         59.49861        47.23343         0.98108
H         59.79736        46.47359         0.43628
O         28.19873        44.69958         1.72355
H         28.08259        43.80273         2.13621
O         57.11956        40.01854        -1.76404
H         57.08170        40.99018        -1.91644
O         30.28859        40.99104        -1.39263
H         29.96062        41.69486        -1.99713
O         38.75537        21.82735        -1.55805
H         39.60042        21.44676        -1.88094
O         37.71446        54.70916        -2.97796
H         36.84859        54.29560        -3.23180
O         44.89626        19.88108         2.11695
H         45.30368        20.66023         2.56484
O         41.31144        30.85718         1.17113
H         42.14703        30.54211         1.57463
O         50.83453        51.04530         2.72785
H         49.99035        51.54134         2.78305
O         24.32101        31.02311        -1.45548
H         23.48181        30.70038        -1.84438
O         43.85009        54.66789        -2.16757
H         43.30353        54.43607        -2.94991
O         37.85102        18.68521         2.90219
H         37.39592        19.48679         3.25177
O         28.66348        43.69908        -1.82527
H         28.68382        44.61315        -2.18371
O         40.15929        45.54620        -2.62103
H         41.03109        45.66972        -3.06368
O         55.00938        49.11084         3.48354
H         54.05410        48.97805         3.70907
O         43.87600        26.61797        -2.64657
H         44.38167        25.87396        -3.04218
O         45.49749        40.41650        -1.44149
H         45.41642        39.52131        -1.84729
O         42.86119        26.97700         0.83055
H         42.12574        27.43744         1.28783
O         31.12563        28.47978        -1.29463
H         30.92355        29.24628        -1.87052
O         30.55749        37.64575         2.67534
H         31.01186        36.83956         3.02031
O         28.96720        48.04452        -2.40930
H         28.05346        47.80169        -2.66837
H         22.03085        26.78567        -0.41114
H         22.17588        29.23542        -0.73042
H         22.03750        31.16504         0.53966
H         22.06367        33.56285         0.87470
H         21.92922        35.46998         0.80039
H         21.83717        37.88295         0.77493
H         21.91098        39.80914         0.33193
H         21.97394        42.09547        -0.46239
H         21.94704        44.08155        -0.44037
H         21.96914        46.49961         0.00531
H         25.16391        23.36647         0.87240
H         23.07430        24.59917         0.42344
H         25.27614        49.91095        -0.18161
H         23.17639        48.62926         0.01779
H         26.92945        22.41276         1.43591
H         26.95423        50.84935        -0.28376
H         29.04983        21.35291         1.97291
H         28.98764        52.06659        -0.94018
H         32.62641        19.13527         1.08928
H         30.60824        20.40554         1.50541
H         32.87629        54.19626        -1.02977
H         30.76077        53.04233        -0.68254
H         34.30487        18.11442         0.89311
H         34.52021        55.02951        -0.47268
H         36.36209        16.96264         1.31507
H         36.61074        56.27286        -0.51407
H         39.69615        15.64910        -1.41877
H         37.84553        16.46199        -0.01372
H         40.36189        58.49114        -0.71007
H         38.26743        57.28092        -0.82251
H         42.35750        15.44978        -1.74838
H         42.90153        58.49544        -0.45630
H         44.39248        16.60988        -1.38006
H         44.57245        57.20624         0.70068
H         48.36240        18.29479        -0.93036
H         46.25279        17.02430        -0.72408
H         48.47832        55.11768         0.70107
H         46.34149        56.29160         0.57859
H         49.83555        19.12942         1.17228
H         50.20282        54.24644         0.36613
H         51.78632        20.49965         1.92987
H         52.21886        53.10446         1.07673
H         56.55630        23.01476        -0.20209
H         54.62508        21.95132         0.96059
H         55.99970        50.93041         1.47787
H         53.89950        52.09406         1.13365
H         57.97479        23.57007        -1.54249
H         57.30332        49.50459         3.49023
H         59.99186        24.95123        -1.79864
H         61.10388        27.08122        -1.72493
H         61.05025        29.48403        -1.18153
H         60.97675        31.13459        -0.20813
H         60.93111        33.44784         0.56307
H         60.65324        35.32007         1.44384
H         60.56487        37.68449         1.91949
H         60.32328        39.41691         2.55344
H         60.39590        41.78414         3.08056
H         60.66667        43.77062         3.12235
H         60.80093        46.18715         3.34672
H         59.33253        48.17884         3.86024
