         276
 CSIRO Nanostructure Databank - Neutral Graphene Oxide Data Set
C        -11.20874         0.72539        -0.57003
C        -10.20567         1.52921         0.23597
C         -8.88449         0.76491         0.11438
C         -7.60922         1.51769         0.06337
C         -6.30504         0.77706         0.00922
C         -5.04137         1.46174         0.41105
C         -3.80740         0.61596         0.74968
C         -2.51454         1.41013         0.57334
C         -1.19685         0.68387         0.84692
C          0.00423         1.55787         0.57402
C          1.17887         0.76137         1.08505
C          2.48628         1.50346         1.15437
C          3.70039         0.80223         1.34572
C          4.80201         1.61197         1.67641
C          6.69832         0.49663         1.36336
C          7.59246         1.35364         0.73034
C          8.68025         0.70862        -0.03915
C          9.91100         1.50036        -0.28435
C         11.10010         0.77343        -0.71925
C        -10.01914         2.94563        -0.28310
C         -8.85063         3.63618        -0.12112
C         -7.71691         2.94619         0.60999
C         -6.37552         3.69915         0.67444
C         -5.06973         2.92296         0.77615
C         -3.81706         3.63727         0.58845
C         -2.54833         2.91317         0.49919
C         -1.33389         3.67437         0.98167
C         -0.03716         2.89276         0.79703
C          1.20421         3.67714         1.15015
C          2.50720         2.91180         1.07272
C          3.71364         3.65563         1.11263
C          4.92474         2.98911         1.40490
C          6.28443         3.63154         1.34918
C          7.55213         2.81772         0.95496
C          8.57108         3.56640         0.09553
C          9.88176         2.84339        -0.09340
C         -8.67177         4.98780        -0.58058
C         -7.47182         5.66481        -0.50728
C         -6.27328         5.06528         0.08499
C         -5.05922         5.69895        -0.00793
C         -3.82011         5.13497         0.66926
C         -2.49461         5.74516         0.23759
C         -1.32418         5.10082         0.45374
C         -0.02419         5.84732         0.75674
C          1.17998         4.93438         0.24081
C          2.45475         5.74768         0.31365
C          3.69699         5.12749         0.89342
C          5.01914         5.85678         0.77359
C          6.32012         5.18097         1.25234
C          7.54305         5.78164         0.55567
C          8.71082         5.01964         0.41692
C         -7.38453         7.03473        -0.97021
C         -6.18399         7.67267        -1.11726
C         -4.93850         6.92665        -0.82990
C         -3.62287         7.61105        -1.01437
C         -2.48708         7.22265        -0.07020
C         -1.14459         7.70056        -0.63519
C          0.08985         7.33063         0.21517
C          1.19138         7.65296        -0.83648
C          2.54320         6.85155        -0.73997
C          3.81332         7.69916        -0.66143
C          5.05810         7.12794        -0.02342
C          6.36192         7.79228        -0.45961
C          7.56500         7.11885         0.14463
C         -6.08239         9.09653        -1.39617
C         -4.90188         9.74515        -1.50317
C         -3.58008         9.02101        -1.62816
C         -2.37741         9.81485        -1.18043
C         -1.17904         9.19436        -0.89905
C          0.06407         9.87890        -0.87664
C          1.30019         9.17932        -0.81789
C          2.49192         9.87174        -0.71699
C          3.79296         9.19869        -0.70297
C          5.02765         9.90328        -0.26490
C          6.21283         9.27714        -0.15067
C        -11.02463        -0.57359        -0.90115
C         -9.90350        -1.40027        -0.44878
C         -8.93476        -0.70898         0.49633
C         -7.51267        -1.35200         0.65006
C         -6.42323        -0.73783        -0.25252
C         -5.05620        -1.46195        -0.07809
C         -3.76517        -0.63204        -0.17113
C         -2.47968        -1.45242         0.06911
C         -1.17648        -0.62763         0.01340
C          0.09369        -1.45325         0.36735
C          1.35404        -0.68510         0.65210
C          2.56113        -1.44020         1.07912
C          3.86452        -0.67696         0.91984
C          5.17221        -1.47748         1.24499
C          6.49232        -0.85009         1.04180
C          7.74410        -1.63386         0.75580
C          8.80309        -0.79197         0.05524
C         10.14162        -1.49653        -0.15344
C         11.18322        -0.57127        -0.74098
C         -9.82068        -2.72864        -0.72315
C         -8.77218        -3.57707        -0.11083
C         -7.60415        -2.87973         0.53524
C         -6.30099        -3.63645         0.79824
C         -5.03532        -2.89503         0.33855
C         -3.79920        -3.55730         1.00164
C         -2.50085        -2.89103         0.45771
C         -1.27427        -3.56894         0.98456
C          0.04718        -2.83776         0.94605
C          1.32394        -3.55913         1.02709
C          2.54261        -2.84836         0.95823
C          3.79648        -3.50941         0.36418
C          5.14061        -2.93779         0.86000
C          6.33102        -3.57345         0.20604
C          7.51878        -2.92685         0.01862
C          8.61823        -3.51696        -0.75983
C          9.88185        -2.71706        -1.08219
C         -8.65962        -5.01266        -0.41036
C         -7.51595        -5.76518        -0.11003
C         -6.20260        -5.02521         0.11516
C         -5.09799        -5.85517         0.85072
C         -3.76305        -5.09859         0.80055
C         -2.58936        -5.78829         0.85272
C         -1.28414        -5.06130         0.81118
C          0.02048        -5.77011         0.92192
C          1.32229        -5.05744         1.31847
C          2.45388        -5.68532         0.47885
C          3.82448        -5.05523         0.67303
C          4.97033        -5.74271        -0.07215
C          6.21423        -4.96526        -0.30637
C          7.12403        -5.41300        -1.43466
C          8.46796        -4.73062        -1.35307
C         -7.45749        -7.14753        -0.34697
C         -6.20235        -7.89901        -0.32452
C         -4.97226        -7.23520         0.21114
C         -3.83640        -8.05638         0.76331
C         -2.55417        -7.29062         0.95987
C         -1.22905        -8.04537         0.97983
C          0.04629        -7.26795         1.10377
C          1.39944        -7.90563         0.90804
C          2.38338        -7.14352         0.07594
C          3.54367        -7.79969        -0.65820
C          4.78554        -6.99888        -0.87767
C          6.02184        -7.66295        -1.37835
C          7.14726        -6.92571        -1.57605
C         -6.16924        -9.36887        -0.48936
C         -5.07518       -10.10203        -0.23240
C         -3.83928        -9.63167         0.50714
C         -2.53959        -9.80793        -0.20845
C         -1.25654        -9.56359         0.54139
C         -0.09517       -10.14548        -0.28435
C          0.99318        -9.64090        -0.84141
C          2.12396        -9.55103        -1.53736
C          3.50875        -9.31596        -0.90127
C          4.68656        -9.72544        -1.76508
C          5.84457        -9.03458        -1.85532
O         -4.96338        -2.55808        -1.04715
O         -8.32352         1.17513        -1.17180
O          8.28177        -0.18298        -1.16193
O         -0.91958         0.34616         2.25677
O         -0.60835        -7.82849         2.27786
O          5.85050         0.99988         2.34418
O          3.70663        -3.24382        -0.98503
O          2.78850         5.96925         1.69370
O         -2.41232         2.08283        -0.70812
O         -0.86382         7.00353        -1.88113
O         -5.44085         1.39841        -0.99413
O          4.03833         8.36129        -1.94247
O          1.04970        -1.20414        -0.69097
O         -5.08766        -7.29602        -1.22436
O          1.89682        -6.06032        -0.78127
O         -8.66855        -3.37516         1.37990
O          0.59014         0.56309         2.47910
O          6.13290        -5.92468         0.81537
O         -5.77273         3.46602         2.00305
O          4.92602         7.17532         1.42848
O          1.74360        -8.82373         1.65273
O         -3.41252        -7.74200         2.08009
O          3.75567        -7.04762        -1.89701
O          7.28918         3.21242         2.31532
O         -4.02715         6.62669        -1.99849
O         -0.02233         5.92638         2.14316
O          5.19148        -2.56467         2.26184
O         -0.76940        -2.99215         2.19523
O         -3.86823        -3.29835         2.35018
O         -2.42222        -2.54849        -0.93683
O          0.58359         7.27035        -2.12374
O         -0.49622        -5.41264        -0.38914
O         -1.04138        -0.18030        -1.33286
H         -1.07594        -0.96072        -1.92511
O          1.14392         4.02847         2.54103
H          0.32307         3.65412         2.93705
O         -7.06038        -1.08607         1.99519
H         -7.88145        -1.10837         2.55194
O        -10.66358         1.60445         1.61316
H         -9.99840         2.15823         2.09299
O          6.50951        -4.90177        -2.65340
H          7.09814        -5.10628        -3.40911
O          1.49566        -5.27915         2.72130
H          2.42612        -5.05683         2.96235
O         -3.94355         5.53475         2.09082
H         -4.60874         4.92439         2.49652
O          2.71662         6.11531        -1.97888
H          2.86431         6.77815        -2.69140
O         -6.22929        -3.74727         2.22006
H         -6.29321        -2.83313         2.58753
O         -9.51825        -0.78890         1.82056
H        -10.21143        -0.08208         1.90581
O         -1.25057       -10.30479         1.77898
H         -0.63322        -9.83767         2.39043
O          0.26458         8.19992         1.31835
H          0.20827         7.61338         2.12554
O         -5.44950        -6.12976         2.20488
H         -5.29680        -5.31308         2.73683
O         -3.90094       -10.27782         1.76369
H         -2.98711       -10.30296         2.14585
O          3.93536        -0.59335        -0.53771
H          3.79932        -1.52907        -0.91417
O          6.48837         5.58022         2.63271
H          6.12456         6.49095         2.72272
O          6.56984         7.63790        -1.88501
H          5.78401         8.03954        -2.33377
O          4.07906        -5.18949         2.08425
H          5.04970        -5.36394         2.18752
O         -3.37664         8.86988        -3.06599
H         -3.62886         7.93991        -3.28592
O         -3.94553         0.20461         2.11532
H         -3.08785        -0.11618         2.47034
O          0.87687         4.46780        -1.06012
H          1.22034         5.09541        -1.74359
O         -1.52164         3.79029         2.42778
H         -1.18388         4.70505         2.66297
O         -5.75375        -4.78014        -1.22822
H         -5.55574        -5.65141        -1.65283
O         10.69978        -1.96261         1.08791
H          9.96522        -2.21862         1.69595
O          3.68316       -10.05586         0.30435
H          2.95659        -9.83451         0.93980
O         -6.84501        -0.91574        -1.60318
H         -6.28245        -0.34059        -2.16652
O         -3.67322        -0.19826        -1.53053
H         -3.62703        -1.01226        -2.07831
O          9.76796        -2.24635        -2.43033
H          9.09183        -1.53086        -2.44306
O         -2.71759         7.94760         1.16188
H         -3.05233         7.31086         1.83552
O          8.24290        -2.00043         2.09263
H          7.49555        -2.42372         2.57451
O         -8.18555         2.78573         1.98426
H         -7.39543         2.87011         2.57318
O          7.91383         3.55158        -1.23284
H          8.54255         3.92213        -1.88844
H         12.10688        -1.04770        -1.10223
H         11.94812         1.37716        -1.07784
H         10.79238         3.44387        -0.24497
H          9.62606         5.52960         0.06944
H          8.53462         7.51596        -0.20261
H          7.10749         9.84612         0.14385
H          4.94431        10.97939        -0.04820
H          2.47057        10.96819        -0.62343
H          0.07866        10.97419        -0.99192
H         -2.39967        10.90646        -1.33152
H         -4.89607        10.83115        -1.68249
H         -7.02495         9.66351        -1.44805
H         -8.32156         7.56897        -1.18883
H         -9.53577         5.49024        -1.04142
H        -10.87098         3.43419        -0.78215
H        -12.11431         1.24506        -0.92025
H        -11.79004        -1.07849        -1.51225
H        -10.56617        -3.20892        -1.37613
H         -9.53419        -5.51906        -0.84918
H         -8.38655        -7.70238        -0.54898
H         -7.06007        -9.84792        -0.92433
H         -5.11060       -11.18686        -0.41479
H         -2.52722        -9.52906        -1.27591
H         -0.18487       -11.24939        -0.33125
H          2.05633        -9.34134        -2.62080
H          4.63737       -10.73321        -2.20511
H          6.68840        -9.47813        -2.40727
H          8.03733        -7.39358        -2.02668
H          9.28639        -5.13030        -1.97356
H         10.76974        -3.39740        -1.04396
