         300
 CSIRO Nanostructure Databank - Neutral Graphene Oxide Data Set
C         30.27062        31.94717        -1.82106
C         30.18703        32.89018        -1.00692
C         30.19535        36.00319         0.06295
C         30.23556        37.18801         0.39976
C         30.26784        40.45701         0.78256
C         30.25623        41.68278         0.91284
C         32.84833        29.73230        -3.50224
C         31.73005        30.22485        -3.18748
C         32.65036        31.82679        -1.76805
C         31.44455        31.26337        -2.28001
C         32.57817        32.91490        -0.69789
C         31.34313        33.88227        -0.92677
C         32.56798        35.87206        -0.15330
C         31.30159        34.98619         0.13917
C         32.59669        37.37359        -0.03586
C         31.38363        38.09308         0.52316
C         32.66144        40.38772         0.25670
C         31.42805        39.56139         0.68416
C         32.77201        41.68578         1.09187
C         31.20901        42.61432         1.51359
C         32.70277        44.49984         0.98633
C         31.62227        43.90251         0.91800
C         35.31098        27.14111         0.84884
C         35.18816        28.56351         1.06661
C         34.07595        30.11608        -2.91794
C         35.04883        31.65878        -1.19969
C         33.92904        31.25067        -2.03455
C         35.09418        32.99185        -0.56847
C         33.87748        33.69977        -0.55321
C         35.14283        35.83832         0.05250
C         33.85058        35.09536        -0.06663
C         35.19120        37.34171        -0.14500
C         33.91623        38.14176        -0.07126
C         35.18241        40.26299         0.35126
C         33.98430        39.59990         0.28220
C         35.19807        41.79467         0.22311
C         34.05369        42.43756         1.02513
C         35.32702        44.70412         1.05788
C         34.05438        43.96042         1.17351
C         35.57878        46.12904         0.78042
C         37.74998        26.97429         0.78776
C         36.36106        26.50290         0.70021
C         37.68688        28.49573         0.57008
C         36.43760        29.23646         1.00267
C         37.72334        31.44706         0.63143
C         36.46274        30.66717         0.84478
C         37.63507        32.81859        -0.00522
C         36.32181        33.56519        -0.06150
C         37.68794        35.77957         0.01580
C         36.40167        35.05306        -0.18697
C         37.67749        37.22120         0.48719
C         36.49618        38.05963         0.10118
C         37.68037        40.21730         1.03417
C         36.50583        39.55093         0.29082
C         37.87074        41.68132         0.60628
C         36.58343        42.49332         0.44638
C         37.88596        44.61875         1.31789
C         36.62666        43.95919         0.78226
C         37.94313        46.14760         1.34173
C         36.67114        46.69669         0.83789
C         40.47870        24.36676         0.52745
C         39.30099        24.80096         0.53730
C         40.39337        27.01221         0.61345
C         39.04702        26.24416         0.76189
C         40.33047        28.52167         0.12603
C         38.98988        29.23892         0.41269
C         40.30602        31.45434         0.38835
C         39.03426        30.72238         0.68706
C         40.25883        32.80019         0.21269
C         38.96000        33.53364        -0.05729
C         40.15182        35.79632        -0.06904
C         38.94103        35.00111         0.38684
C         40.22093        37.28827         0.20267
C         38.96812        37.93684         0.72746
C         40.36221        40.11010         1.01365
C         39.01632        39.42797         0.97962
C         40.45491        41.61107         1.18289
C         39.17760        42.38454         0.91339
C         40.50374        44.57291         1.46228
C         39.18756        43.83710         1.33480
C         40.52593        46.10017         1.42594
C         39.22332        46.83799         1.33001
C         40.49214        48.92707         1.21067
C         39.43340        48.20476         1.24782
C         43.04228        24.51159         0.24029
C         41.75693        24.89185         0.16382
C         42.52854        27.26990        -0.77498
C         41.35752        26.32583        -0.39614
C         42.87123        28.50809         0.04578
C         41.63991        29.24968         0.52850
C         42.91881        31.49004         0.33458
C         41.60986        30.75933         0.80057
C         42.89605        32.99312         0.15030
C         41.50546        33.51150        -0.28417
C         42.74670        35.67730        -0.04898
C         41.40105        35.03817        -0.28473
C         42.81937        37.20883        -0.05656
C         41.54174        38.00778         0.15013
C         42.77859        40.21696         0.09645
C         41.71647        39.37805         0.81323
C         42.91177        41.56284         0.37243
C         41.79302        42.31215         1.06765
C         42.72749        44.64558         0.27907
C         41.89315        43.86455         1.29272
C         43.12098        46.08890         0.71615
C         41.77521        46.85292         0.96088
C         43.00697        48.87871         0.38521
C         41.61025        48.34167         0.36266
C         44.11196        25.29396        -0.12828
C         45.92519        26.99786        -1.02938
C         45.13032        25.89416        -0.50698
C         45.45761        28.51719         0.05159
C         44.15103        29.24501        -0.31209
C         45.38516        31.55380        -0.36491
C         44.09877        30.75277        -0.27189
C         45.36369        33.03208        -0.60820
C         43.99895        33.65377        -0.63729
C         45.71571        35.87480        -1.37183
C         43.63001        34.95347        -1.05546
C         45.24313        37.35924        -1.32195
C         44.01597        37.96565        -0.55449
C         45.15401        40.18079        -0.60662
C         43.80077        39.48981        -0.83643
C         45.04144        41.68090        -0.84731
C         44.05337        42.33722        -0.17378
C         45.27070        44.58717        -0.63839
C         44.41917        43.74111         0.32087
C         45.52402        46.07247        -0.21356
C         44.14121        46.77246        -0.28598
C         44.00171        48.21468         0.08764
C         48.03503        27.37866         0.36273
C         47.30914        26.97830        -0.56033
C         47.87450        28.73998         0.92661
C         46.71335        29.40480         0.19720
C         47.66494        31.77846         0.81286
C         46.64796        30.90055         0.13120
C         47.64244        33.24274         0.50838
C         46.55400        33.84432        -0.10219
C         47.64599        36.09622        -0.01624
C         46.55826        35.28329        -0.29991
C         47.65250        37.50492        -0.42256
C         46.51495        38.10614        -0.88879
C         47.56423        40.39411        -0.63776
C         46.42945        39.57079        -1.24067
C         47.49098        41.91708        -0.81363
C         46.20399        42.35045        -1.55854
C         47.38707        44.51819        -2.42136
C         46.16746        43.86611        -1.59602
C         47.29893        45.91474        -1.92756
C         46.49165        46.55483        -1.26006
C         50.33214        29.18058         1.81055
C         48.96074        29.58239         1.49349
C         50.24650        31.86857         1.23877
C         48.89170        31.12819         1.38946
C         50.11658        33.37172         1.23028
C         48.78462        34.04437         1.03236
C         50.16468        36.18490         0.42133
C         48.80093        35.54264         0.71062
C         50.15807        37.70097         0.29625
C         49.00028        38.23980        -0.54634
C         50.08391        40.61139        -0.17984
C         48.85479        39.74904        -0.29971
C         50.04965        42.03114        -0.74555
C         48.76382        42.45340        -1.46781
C         50.07158        44.35683        -2.29508
C         48.70907        43.77598        -2.18210
C         51.29946        29.92595         2.06488
C         51.74335        32.02544         3.36476
C         51.23724        31.33848         2.30923
C         52.23491        32.67248         4.33412
C         51.27365        34.11467         1.27640
C         52.45486        36.41413         1.13459
C         51.22434        35.60453         1.45881
C         52.42096        37.63203         0.89251
C         51.33072        38.42725         0.37213
C         52.50748        40.64937        -0.43536
C         51.38701        39.89822         0.14911
C         52.50568        41.74387        -1.02823
C         51.52110        42.36762        -1.91136
C         51.15010        43.78979        -2.06520
O         42.51327        28.55168         1.44367
O         38.21889        37.33449         1.84343
O         36.84792        38.97989        -0.99435
O         43.26704        32.41911         1.41778
O         41.29168        41.80280         2.36110
O         45.64411        32.11077        -1.70302
O         40.62535        35.50441        -1.41818
O         36.77298        43.51615        -0.58577
O         38.38212        33.02337        -1.28398
O         38.43758        31.26750         1.91600
O         32.35655        36.71572        -1.31574
O         38.09876        28.94822        -0.74664
O         47.88062        40.03111         0.74258
O         49.44001        37.97295        -1.85518
O         33.65744        41.67633         2.21742
O         50.65186        40.61685         1.18097
O         38.41257        26.61924         2.02503
O         44.75742        43.79273         1.56195
O         47.21351        30.09288        -0.97120
O         43.01754        27.13557        -1.89110
O         31.63547        38.68877         1.82135
O         37.68353        45.35333         2.54811
O         41.45137        46.74950         2.35857
O         47.87443        31.62358         2.27235
O         45.88054        35.38707        -2.49946
O         48.46170        35.06368         2.03775
O         38.79673        42.02198        -0.45937
O         44.87554        44.39824        -2.03365
O         47.93591        28.97307         2.33626
O         34.57306        37.84212        -1.34981
O         40.65973        38.03106        -0.99297
O         34.48561        35.37185         1.27598
O         35.99818        30.81588        -1.05491
O         48.75302        42.48801        -2.92101
O         37.19363        35.58134        -1.33226
O         39.72458        39.60810         2.24353
O         39.83841        44.01901         2.62632
O         43.89729        37.64615         0.84224
O         43.92608        29.99820        -1.52121
O         34.76200        44.41916         2.35565
O         42.50186        44.01076         2.57179
H         42.01123        43.43394         3.20079
O         43.49330        35.40130        -2.31782
H         44.01023        34.83999        -2.93892
O         42.23060        39.13983         2.13734
H         42.05638        39.94344         2.68078
O         31.51247        34.46433        -2.19518
H         30.94825        35.26205        -2.28064
O         45.73720        27.27861        -2.35579
H         44.77761        27.21607        -2.57164
O         43.81422        46.09241         1.93873
H         43.21621        45.77293         2.65643
O         45.19000        27.94658         1.30423
H         46.01531        27.61810         1.72173
O         32.40441        32.16720         0.53794
H         32.00229        32.77236         1.20781
O         51.40263        41.69030        -3.09476
H         50.66086        42.07339        -3.61572
O         34.02795        29.12547         1.28508
H         34.09577        30.10365         1.39824
O         40.96780        26.88558         1.90879
H         40.25428        26.87991         2.58346
O         47.07677        44.43754        -3.79679
H         47.30169        43.52757        -4.09617
O         40.46835        28.55170        -1.30873
H         39.59774        28.34761        -1.72287
O         42.19734        44.54807        -0.97363
H         42.67311        45.18142        -1.58295
O         43.10774        35.26200         1.28056
H         43.74843        35.91333         1.64963
O         43.31051        39.68250        -2.16008
H         43.87832        39.15051        -2.77093
O         50.23280        42.94238         0.29271
H         50.69677        42.47675         1.03000
O         41.51958        33.13178        -1.69311
H         40.82236        33.65899        -2.14984
O         41.18998        48.24876        -0.97000
H         41.32276        49.10683        -1.42248
O         44.94902        37.66392        -2.69654
H         45.38138        36.95326        -3.23767
O         46.20636        41.97052        -2.94324
H         45.33370        42.21596        -3.31624
O         37.25472        40.27676         2.40625
H         38.04482        40.13130         2.97993
O         52.50090        33.59301         1.17552
H         52.47098        32.63015         0.99500
O         45.42115        40.02720         0.80659
H         44.59825        40.16124         1.32345
O         46.46022        39.63931        -2.66693
H         47.25329        39.15100        -2.97530
O         47.39286        42.53411         0.47553
H         47.57969        41.84086         1.15538
O         43.64458        46.64743        -1.61900
H         44.40374        46.70316        -2.24448
O         35.22868        29.51634        -3.16344
H         35.94140        29.89354        -2.59021
O         50.52754        35.70975        -0.89190
H         50.23347        36.41902        -1.54074
O         50.83425        35.87131         2.78101
H         50.85879        36.83553         2.94777
O         41.54663        30.85847         2.23682
H         42.27669        30.31995         2.61437
O         31.35061        34.43208         1.44076
H         31.20654        35.13710         2.10642
O         35.46977        31.32326         1.46229
H         35.60724        32.30173         1.45093
O         50.80057        31.42731        -0.03080
H         50.38386        31.93329        -0.76039
O         40.65844        26.07806        -1.60402
H         41.31650        26.11880        -2.33711
O         34.84273        42.05433        -1.15921
H         35.61417        41.85894        -1.73460
O         31.09448        42.66854         2.87152
H         31.79781        43.23026         3.25620
O         39.01321        34.84728         1.82089
H         38.83964        35.72063         2.25311
O         32.41174        40.75084        -1.10651
H         33.19019        41.26052        -1.44402
O         46.14634        46.12819         1.03888
H         45.79075        45.40110         1.61069
