         324
 CSIRO Nanostructure Databank - Neutral Graphene Oxide Data Set
C          1.67799         2.46129         2.36052
C          1.57125         3.80771         1.92554
C          2.74274         1.66338         1.99752
C          2.49629         4.36607         1.04999
C          1.25626         6.52308         0.83717
C          1.15283         7.83904         0.51839
C          2.42390         5.71918         0.55031
C          2.19507         8.52202        -0.26167
C          1.01646        10.84960        -0.47000
C          1.06639        12.16186        -0.77327
C          2.23671        10.03293        -0.21319
C          2.33670        12.89581        -1.01680
C          1.33568        15.19741        -1.32804
C          1.49850        16.56942        -1.54153
C          2.44495        14.37458        -1.07443
C          2.78149        17.11949        -1.69878
C          3.00423        18.56279        -1.78929
C          3.77873         2.16638         1.15334
C          3.58835         3.50514         0.54974
C          4.96920         1.47704         0.97835
C          4.77259         4.15760        -0.15021
C          3.55381         6.32007        -0.05420
C          3.46989         7.72409        -0.52493
C          4.79488         5.63127        -0.20175
C          4.77734         8.43520        -0.75710
C          3.54827        10.71114        -0.36874
C          3.62036        12.14164        -0.81778
C          4.79432         9.94408        -0.66403
C          4.84494        12.86740        -0.40984
C          3.75433        14.94046        -1.08446
C          3.89198        16.24601        -1.61558
C          4.90343        14.24151        -0.48940
C          4.77524        17.24834         0.41054
C          4.01987        19.19826        -1.15279
C          5.01146        18.57305        -0.27315
C          6.12784         2.05183         0.37143
C          6.05843         3.36749        -0.39133
C          7.33952         1.39666         0.42643
C          7.31926         4.18388        -0.21663
C          6.03278         6.31647        -0.36383
C          6.05401         7.73625        -0.50716
C          7.28918         5.59799        -0.32233
C          7.26118         8.47205        -0.49518
C          6.04673        10.62031        -0.32376
C          5.97891        12.04849         0.07732
C          7.23198         9.91857        -0.38512
C          7.27000        12.78214         0.33908
C          6.04193        14.98876         0.11152
C          5.99513        16.35115         0.39565
C          7.28442        14.26015         0.33554
C          7.17776        17.05205         0.95177
C          6.20120        19.17235        -0.02160
C          7.20111        18.59029         0.95340
C          8.57180         2.05387         0.06725
C          8.54152         3.49037        -0.15282
C          9.77793         1.37451         0.07109
C          9.77520         4.19767        -0.27025
C          8.51727         6.32700        -0.36697
C          8.52015         7.76508        -0.42840
C          9.75579         5.62018        -0.37143
C          9.75500         8.45400        -0.38980
C          8.49531        10.69037        -0.37553
C          8.53262        12.06884         0.11386
C          9.80669         9.92448        -0.43877
C          9.74610        12.74270         0.26326
C          8.49654        14.88491         0.62893
C          8.47669        16.29458         1.07894
C          9.74503        14.15034         0.58795
C          9.78651        17.04327         1.31865
C          8.57915        19.16400         0.69855
C          9.77225        18.50072         0.87850
C         11.02406         2.05006        -0.15299
C         11.01009         3.48188        -0.29916
C         12.23943         1.35892        -0.19162
C         12.23214         4.17866        -0.50399
C         10.99722         6.32563        -0.48025
C         11.00018         7.76858        -0.39258
C         12.19661         5.60248        -0.61865
C         12.21597         8.49694        -0.26852
C         11.02745        10.62837        -0.02428
C         11.00095        12.02050         0.18967
C         12.24631         9.89190         0.01478
C         12.23216        12.71448         0.41463
C         10.97917        14.81035         0.76401
C         10.99179        16.30178         0.77513
C         12.20396        14.11121         0.65398
C         12.27124        17.05774         0.86563
C         11.01844        19.19301         0.81651
C         12.27250        18.54282         0.99357
C         13.47637         2.03208        -0.41461
C         13.46464         3.45314        -0.60253
C         14.70766         1.33034        -0.42591
C         14.70177         4.12839        -0.86535
C         13.44082         6.31980        -0.88602
C         13.48442         7.84007        -0.60200
C         14.70224         5.57132        -0.91866
C         14.76122         8.44971        -0.17587
C         13.49654        10.57649         0.19811
C         13.47935        11.99270         0.37385
C         14.73962         9.82771         0.21268
C         14.70798        12.73745         0.41947
C         13.47090        14.81144         0.98661
C         13.49328        16.29283         1.23965
C         14.74266        14.15161         0.63140
C         14.79803        17.03591         1.32944
C         13.48074        19.21425         1.05620
C         14.76523        18.55330         1.50050
C         15.93788         1.99127        -0.65528
C         15.90731         3.39998        -0.91907
C         17.19037         1.31377        -0.63815
C         17.15164         4.06733        -1.32154
C         15.87995         6.30076        -0.94543
C         15.93377         7.64309        -0.37662
C         17.11216         5.60678        -1.35314
C         17.19403         7.96322         0.17732
C         15.94689        10.59922         0.41258
C         15.93483        12.03813         0.32000
C         17.18396        10.02852         0.74282
C         17.14879        12.77320         0.24315
C         15.93422        14.88387         0.51013
C         16.03821        16.32894         0.85764
C         17.15597        14.19665         0.25792
C         17.23138        17.10965         0.44434
C         16.05288        19.20019         1.05046
C         17.24005        18.54699         0.71584
C         18.44444         1.97832        -0.77009
C         18.46164         3.40135        -1.10756
C         19.65459         1.28260        -0.62935
C         19.65414         4.08598        -1.26246
C         18.40681         6.33449        -1.27337
C         18.43444         7.46187        -0.32261
C         19.70446         5.55515        -1.41931
C         19.66908         7.91605         0.11654
C         18.41933        10.70221         0.52557
C         18.39610        12.09032         0.18630
C         19.65999        10.04716         0.60729
C         19.60833        12.78987         0.01139
C         18.38083        14.91550         0.12321
C         18.36535        16.35588         0.05583
C         19.62757        14.23485        -0.02770
C         19.58181        16.96811        -0.36472
C         18.46738        19.33187         0.82308
C         19.65933        19.02105         0.16793
C         20.93500         1.97224        -0.51178
C         20.93541         3.47473        -0.82236
C         22.23391         1.30673        -0.54704
C         22.24038         4.10267        -1.23556
C         20.95770         6.26115        -1.05688
C         20.91981         7.50455        -0.46489
C         22.22918         5.61856        -1.42376
C         22.01050         8.50856        -0.81557
C         20.85320        10.62909         0.14356
C         20.82296        12.05285        -0.03259
C         22.06108         9.87974        -0.14255
C         22.05011        12.75620         0.01795
C         20.85272        14.94809        -0.13621
C         20.85935        16.36999        -0.25731
C         22.12025        14.20043        -0.32135
C         22.07080        17.16182        -0.34950
C         21.01150        19.32890         0.45223
C         22.12449        18.55282        -0.00370
C         23.45965         2.00753        -0.50874
C         23.51225         3.44686        -0.82097
C         24.63604         1.32030        -0.15279
C         24.67229         4.17486        -0.66645
C         23.49913         6.41356        -1.33269
C         23.37544         7.85735        -0.97435
C         24.79991         5.62883        -0.99306
C         24.43578         8.69807        -1.14689
C         23.24371        10.61393        -0.14866
C         23.15292        11.97017         0.28301
C         24.52279        10.11992        -0.74397
C         25.02870        13.10306        -0.04242
C         23.40123        14.95473        -0.62856
C         23.32686        16.46597        -0.71222
C         24.77758        14.36406        -0.52604
C         24.67549        17.21181        -0.67344
C         23.42000        19.18454         0.14122
C         24.63462        18.58289        -0.12631
C         25.93912         1.95293        -0.08036
C         25.94694         3.50048        -0.29882
C         27.06813         1.39434         0.65266
C         27.00499         4.23838         0.45472
C         25.96698         6.37265        -0.43978
C         26.22019         7.66679        -0.77900
C         26.98412         5.74336         0.43642
C         27.04794         8.58564         0.08307
C         25.91169        10.78682        -0.66845
C         26.08771        12.25293        -0.45190
C         27.17586        10.00296        -0.47408
C         27.29228        12.88746        -0.82807
C         25.96752        15.06168        -1.17308
C         25.95491        16.48212        -0.64481
C         27.27301        14.32895        -0.87975
C         27.13245        17.12228        -0.25932
C         25.89356        19.23358         0.10602
C         27.10050        18.56137         0.01785
C         28.25349         2.12654         0.86806
C         28.27475         3.55016         0.74691
C         29.45218         1.46891         1.31159
C         29.44688         4.30462         1.01990
C         28.28038         6.47671         0.58584
C         28.32104         7.84263         0.39495
C         29.48386         5.74156         0.91010
C         29.53063         8.61535         0.68425
C         28.37000        10.71130        -0.35866
C         28.47399        12.09897        -0.73316
C         29.56572        10.09237         0.28605
C         29.76777        12.77984        -0.70557
C         28.43664        15.04201        -0.55497
C         28.38274        16.42293        -0.24206
C         29.73670        14.32308        -0.57158
C         29.59444        17.13665         0.32736
C         28.35758        19.27032         0.02723
C         29.56333        18.61473         0.00648
C         30.60360         2.18059         1.53114
C         30.64247         3.59952         1.36947
C         31.84816         4.32421         1.55075
C         30.71971         6.44139         1.05623
C         30.78362         7.87699         0.89684
C         31.89099         5.69161         1.37711
C         31.97049         8.62912         0.92654
C         30.89590        10.73861         0.17458
C         30.98087        12.07474        -0.26159
C         32.02114         9.98874         0.60485
C         32.20383        12.85064        -0.27095
C         30.91551        14.93846         0.17057
C         30.90712        16.44854        -0.01440
C         32.19540        14.20429        -0.15129
C         32.00466        17.17947        -0.34016
C         30.80066        19.30780        -0.23461
C         31.96458        18.62091        -0.41799
O         13.41438         7.30731        -1.96889
O         22.62834        14.34324        -1.72719
O          3.11149        12.33319        -2.16628
O         25.55841         8.24917        -1.85862
O         19.11112         6.31566        -2.54105
O         26.48978         5.02350         1.60070
O         19.73940         8.78444         1.21171
O         30.03577        13.70846        -1.82554
O         15.70901        16.47830         2.31948
O          3.67733         3.55900        -0.92258
O         24.21630        12.54766         0.94718
O         19.48503        18.20356        -0.98118
O          2.46947         7.94073        -1.57170
O         17.20715         8.75418         1.33899
O         24.44405         6.00993        -2.35396
O          4.79643         9.26615        -1.95875
O          6.42423        12.26743         1.46113
O          9.21624        10.51286        -1.65349
O         29.26063         9.69545         1.67830
O         25.09256        10.79464        -1.93537
O         22.17503         4.70244        -2.55554
O         23.93386        17.00733        -1.93873
O          7.58162        16.48307         2.24739
O         26.42366         2.63543        -1.31994
O         20.91801         3.04979         0.55346
O          3.00029        10.50995         0.97050
O         13.35126        15.37432         2.36164
O          3.77970        16.97801         1.05754
O         16.99943         4.82307        -2.56600
O         11.65188        16.75373        -0.45507
O         10.02620        17.05122         2.75036
H          9.14620        17.03752         3.19318
O         14.80893        18.80446         2.94961
H         15.31727        18.05521         3.34250
O          6.80291        19.02931         2.28298
H          7.08899        18.32832         2.91177
O         30.64156        14.67506         1.59547
H         31.46853        14.84790         2.09379
O         26.31282         8.72196         1.34994
H         26.95349         9.07926         2.00567
O         21.61461         8.88465        -2.18046
H         21.68568         8.09435        -2.75933
O          6.05322         3.00311        -1.80380
H          5.11338         2.82676        -2.04136
O         29.43203        17.06765         1.78586
H         29.61567        16.13004         2.04387
O          5.09597        16.66153        -2.10973
H          5.72768        15.91437        -2.10907
O         25.80458        15.10148        -2.61404
H         25.00436        15.65343        -2.79487
H          0.90615         2.06410         3.03413
H          0.73069         4.40317         2.30593
H          2.83312         0.64236         2.39510
H          0.43029         6.05903         1.39293
H          0.28953         8.42352         0.86831
H          0.03934        10.35432        -0.36298
H          0.12410        12.71725        -0.89650
H          0.32462        14.76805        -1.32094
H          0.61673        17.21972        -1.62440
H          2.27033        19.16422        -2.34919
H          5.08114         0.49308         1.46102
H          4.12957        20.28543        -1.29500
H          7.39183         0.37872         0.84366
H          6.43244        20.15310        -0.46767
H          9.79016         0.28901         0.25097
H          8.61241        20.24155         0.47020
H         12.24431         0.26698        -0.05655
H         11.00192        20.28642         0.68966
H         14.70443         0.24392        -0.25179
H         13.47437        20.31536         1.05766
H         17.19672         0.23325        -0.43004
H         16.11709        20.28036         1.25914
H         19.64190         0.18442        -0.56753
H         18.45322        20.16537         1.54132
H         22.25634         0.20884        -0.48322
H         21.23089        20.20598         1.08005
H         24.53792         0.31232         0.27691
H         23.42927        20.21399         0.53202
H         27.01434         0.34740         0.98565
H         25.88987        20.30757         0.34661
H         29.44058         0.37692         1.43756
H         28.33192        20.36744        -0.06804
H         31.52405         1.66126         1.83568
H         32.76369         3.77678         1.81791
H         32.84821         6.21294         1.51056
H         32.92210         8.13190         1.16127
H         33.00447        10.47954         0.61564
H         33.16825        12.32516        -0.34473
H         33.15052        14.74806        -0.12578
H         32.96464        16.68719        -0.55462
H         30.77863        20.40343        -0.33298
H         32.89655        19.15628        -0.64534
