         430
 CSIRO Nanostructure Databank - Neutral Graphene Oxide Data Set
C         27.87848        27.49859        -0.20630
C         27.85564        28.87866        -0.01364
C         26.64288        29.62436        -0.02121
C         27.87665        31.74746        -0.15723
C         26.64553        30.99837        -0.05266
C         27.87545        33.16668        -0.38244
C         26.66641        33.92486        -0.40101
C         27.89287        36.02393        -0.64546
C         26.67411        35.29305        -0.52853
C         27.91725        37.46277        -0.63493
C         26.71648        38.23091        -0.68604
C         27.96001        40.30146        -0.32813
C         26.74107        39.59718        -0.56247
C         27.96726        41.69273         0.00078
C         26.76209        42.46210         0.03503
C         27.92635        44.26093         1.18621
C         26.74592        43.70997         0.59512
C         27.83336        45.41448         1.98978
C         30.33263        27.47552        -0.35439
C         29.09193        26.80359        -0.33254
C         30.37526        28.87333        -0.19461
C         29.13976        29.59662         0.30162
C         30.33177        31.74223        -0.24101
C         29.10276        31.05722        -0.06537
C         30.32327        33.11887        -0.55983
C         29.10930        33.85543        -0.58890
C         30.33467        36.02296        -0.83220
C         29.11473        35.29836        -0.72305
C         30.38234        37.42235        -0.63925
C         29.15577        38.15323        -0.52867
C         30.42725        40.24764        -0.11399
C         29.18544        39.57323        -0.33324
C         30.43197        41.61599         0.26776
C         29.19036        42.30844         0.39637
C         30.38711        44.13068         1.57902
C         29.17954        43.59287         1.01506
C         30.18571        45.20283         2.48180
C         28.95464        45.83953         2.68672
C         32.73816        24.68733         0.27544
C         31.59806        25.30215        -0.10608
C         32.86959        27.43850        -0.36508
C         31.59398        26.68900        -0.68580
C         32.85952        28.89947        -0.73485
C         31.59043        29.61543        -0.29679
C         32.85127        31.78609         0.00555
C         31.58259        31.00601        -0.22039
C         32.86135        33.14784        -0.63521
C         31.58116        33.76835        -0.97358
C         32.85851        36.00330        -1.05341
C         31.57616        35.30498        -1.13105
C         32.87081        37.43820        -0.85450
C         31.63733        38.12338        -0.57924
C         32.89885        40.18765        -0.10916
C         31.66671        39.50753        -0.24109
C         32.90364        41.64294         0.09985
C         31.66240        42.32282         0.55188
C         33.02578        44.14681         1.73320
C         31.67807        43.54407         1.22957
C         33.10153        45.68050         1.76608
C         32.14893        46.39012         2.48894
C         33.05849        48.51898         1.86653
C         32.07749        47.79447         2.51631
C         35.26003        23.27271         0.84220
C         35.19986        24.68038         0.61104
C         34.02106        25.35867         0.28088
C         35.31374        27.49998         0.00355
C         34.03607        26.78430        -0.02136
C         35.33486        28.91932        -0.22045
C         34.11979        29.63114        -0.35422
C         35.34393        31.74030        -0.28432
C         34.12752        31.02893        -0.27562
C         35.31889        33.24803        -0.16802
C         34.03959        33.84656        -0.73672
C         35.30840        35.92944        -1.28778
C         34.03105        35.25219        -1.05420
C         35.32265        37.44941        -1.22285
C         34.08355        38.14409        -0.84217
C         35.37482        40.16882        -0.25567
C         34.14003        39.51722        -0.40033
C         35.46656        41.45503         0.51779
C         34.23283        42.33915         0.33006
C         35.56647        44.27335         1.29607
C         34.24433        43.60961         1.02424
C         35.47282        45.77292         1.01854
C         34.22509        46.43084         1.29615
C         35.36239        48.62168         0.95237
C         34.18536        47.85887         1.31749
C         35.34905        50.03681         0.90585
C         37.72530        23.20255         0.83843
C         36.44953        22.57933         0.93764
C         37.76693        24.67527         0.88688
C         36.45931        25.43864         0.75369
C         37.77387        27.51034         0.21792
C         36.50747        26.83960         0.29564
C         37.79995        28.91083        -0.03306
C         36.56972        29.62747        -0.17585
C         37.82783        31.76342        -0.37942
C         36.57100        31.04808        -0.29405
C         37.83588        33.15894        -0.60797
C         36.58805        33.90046        -0.67945
C         37.82311        35.93398        -1.52833
C         36.57518        35.20030        -1.09967
C         37.79974        37.39801        -1.10218
C         36.62502        38.09442        -0.98757
C         37.88280        40.07721        -0.13100
C         36.63228        39.60393        -0.87021
C         37.90853        41.58314        -0.08779
C         36.73980        42.23714         0.27863
C         37.89862        44.37770         0.36408
C         36.74480        43.64213         0.56810
C         37.96184        45.80147         0.88478
C         36.62634        46.50907         0.81547
C         37.80397        48.71010         0.61979
C         36.59889        47.94873         0.76189
C         37.76829        50.11411         0.63718
C         36.52119        50.75961         0.76253
C         40.12986        20.35196         0.72332
C         38.95550        21.04911         0.74298
C         40.19843        23.18944         0.66611
C         38.93567        22.48475         0.73568
C         40.21907        24.64211         0.54446
C         39.02711        25.37229         0.55983
C         40.24461        27.47443         0.15343
C         39.00890        26.78634         0.33125
C         40.26265        28.89319        -0.02812
C         39.04306        29.61397        -0.11461
C         40.29537        31.72772        -0.42211
C         39.05437        31.03743        -0.31019
C         40.30816        33.14454        -0.64461
C         39.07512        33.84523        -0.79152
C         40.30233        35.92477        -1.20565
C         39.09861        35.23701        -1.11596
C         40.27973        37.38244        -1.60758
C         39.06861        38.09911        -1.05424
C         40.33918        40.19417        -0.87689
C         39.12606        39.43084        -0.70398
C         40.29617        41.61557        -0.72290
C         39.12111        42.29904        -0.32365
C         40.26836        44.48311        -0.27209
C         39.10506        43.73846        -0.11905
C         40.26166        45.97757        -0.33297
C         39.07155        46.63147         0.30271
C         40.26712        48.76366         0.07348
C         39.05745        48.00559         0.35879
C         40.25197        50.18178         0.10432
C         39.05853        50.91246         0.68973
C         40.10595        53.00710        -0.14050
C         38.98024        52.33077         0.17333
C         42.59042        20.32209         0.62948
C         41.39028        21.03656         0.69262
C         42.71203        23.19034         0.83363
C         41.39518        22.47229         0.66812
C         42.69651        24.61436         0.32312
C         41.47312        25.32750         0.34826
C         42.71988        27.43887         0.10858
C         41.47481        26.74340         0.16931
C         42.73575        28.87633        -0.00190
C         41.51545        29.59074        -0.11748
C         42.77047        31.69865        -0.40453
C         41.52397        31.00573        -0.32458
C         42.78801        33.13718        -0.64879
C         41.54369        33.84930        -0.76690
C         42.79076        35.96177        -1.19533
C         41.55038        35.24536        -1.04253
C         42.77979        37.37507        -1.36350
C         41.56873        38.11120        -1.32667
C         42.79729        40.29326        -1.55193
C         41.54449        39.51547        -1.20905
C         42.81763        41.70775        -1.05640
C         41.51264        42.39126        -1.03081
C         42.79948        44.55979        -0.54510
C         41.50813        43.86399        -0.75034
C         42.79770        45.92432        -0.27590
C         41.54689        46.60405         0.22106
C         42.71111        48.76902        -0.29097
C         41.52516        48.08849        -0.05436
C         42.65913        50.21590        -0.68920
C         41.41200        50.90669        -0.19184
C         42.60029        53.03898        -0.29133
C         41.39660        52.33811        -0.20207
C         43.82707        20.99391         0.43271
C         45.16230        23.05454         0.02746
C         43.90839        22.36375         0.42737
C         45.15234        24.53910        -0.19408
C         43.90885        25.30177         0.11395
C         45.21418        27.42650         0.46615
C         43.93284        26.71090         0.11479
C         45.22335        28.88887         0.11094
C         43.98313        29.58416        -0.02505
C         45.23080        31.78431         0.00250
C         43.96812        30.99246        -0.21161
C         45.27656        33.02694        -0.87510
C         43.99401        33.82289        -0.79963
C         45.27923        35.90918        -0.97822
C         44.03339        35.23729        -1.03823
C         45.37542        37.33816        -1.28641
C         44.05139        38.11234        -1.50594
C         45.26630        40.24279        -1.06337
C         44.07494        39.55514        -1.26714
C         45.27024        41.68483        -0.92318
C         44.00791        42.40042        -0.91302
C         45.24619        44.52832        -0.53459
C         44.02754        43.83985        -0.67795
C         45.25116        45.96075        -0.41208
C         44.01154        46.66449        -0.31627
C         45.20268        48.81571        -0.39675
C         43.98100        48.08813        -0.31282
C         45.19513        50.25735        -0.39355
C         43.93291        50.98008        -0.38978
C         43.84748        52.35875        -0.28673
C         47.63166        23.12447         0.27800
C         46.46367        22.40686         0.25474
C         47.70315        24.52963         0.07334
C         46.47705        25.28984        -0.39714
C         47.68713        27.39680         0.11356
C         46.47998        26.71396         0.08828
C         47.70433        28.84380         0.13675
C         46.46854        29.56452         0.05704
C         47.71509        31.66669        -0.18294
C         46.50701        30.98455        -0.11034
C         47.71598        33.12137        -0.31263
C         46.51378        33.81974        -0.53867
C         47.68559        35.95153        -0.31464
C         46.49295        35.22589        -0.61110
C         47.71503        37.39946        -0.39811
C         46.54974        38.10758        -0.87878
C         47.71579        40.25295        -0.66861
C         46.51689        39.52004        -0.88972
C         47.72091        41.65962        -0.65101
C         46.47717        42.38033        -0.74084
C         47.71911        44.49610        -0.47103
C         46.50394        43.81406        -0.58789
C         47.73743        45.94841        -0.06695
C         46.46078        46.68592        -0.37699
C         47.69316        48.82649        -0.44939
C         46.44877        48.10237        -0.39976
C         47.64467        50.22156        -0.42559
C         46.42820        50.91998        -0.38636
C         50.18633        24.56728         0.27357
C         48.93444        25.24250         0.14482
C         50.17461        27.38553         0.17622
C         48.94607        26.67478         0.09295
C         50.17929        28.82571         0.17654
C         48.94079        29.53970         0.11050
C         50.19043        31.66672         0.03913
C         48.96462        30.96811        -0.02054
C         50.24993        33.13935        -0.28427
C         48.92198        33.83739        -0.16758
C         50.06920        35.93775         0.43770
C         48.88694        35.23780        -0.09668
C         50.02724        37.44136         0.51218
C         48.88347        38.09934        -0.13307
C         50.14839        40.25740        -0.05507
C         49.01611        39.49166        -0.67302
C         50.20973        41.63288        -0.51752
C         48.95128        42.39401        -0.57674
C         50.22660        44.53221        -0.50099
C         48.96477        43.79464        -0.53523
C         50.21681        45.97689        -0.53054
C         48.98778        46.68968        -0.46779
C         50.18910        48.77750        -0.75560
C         48.95976        48.09384        -0.55322
C         51.37472        25.25637         0.30984
C         52.65693        27.40164         0.31711
C         51.41282        26.67837         0.26156
C         52.64646        28.82583         0.31759
C         51.40423        29.53886         0.24275
C         52.64768        31.70175         0.34732
C         51.40937        30.97327         0.21224
C         52.65396        33.12585         0.47569
C         51.41264        33.87202         0.35156
C         52.57013        36.01898         0.82027
C         51.36881        35.23526         0.55698
C         52.58537        37.39914         0.79827
C         51.29965        38.21000         0.87267
C         52.57608        40.37963         0.69622
C         51.45571        39.51604         0.08045
C         52.71151        41.71892         0.00769
C         51.50867        42.38831        -0.49101
C         52.69409        44.57031        -0.36476
C         51.45221        43.86166        -0.46197
C         52.70658        45.98617        -0.50259
C         51.44941        46.69116        -0.62292
C         51.39218        48.10133        -0.76667
C         55.09716        27.42284         0.43243
C         53.91219        26.72706         0.36995
C         55.10621        28.84482         0.45934
C         53.87412        29.55192         0.39808
C         55.11019        31.68876         0.58587
C         53.87632        30.98573         0.44528
C         55.09591        33.12106         0.73190
C         53.85335        33.81427         0.72986
C         55.09865        36.01768         0.90209
C         53.82419        35.25987         1.18107
C         55.08370        37.44344         0.86301
C         53.83762        38.16694         0.83207
C         55.09183        40.30330         0.68217
C         53.86203        39.57462         0.72674
C         55.10924        41.73476         0.49800
C         53.89507        42.43162         0.14066
C         55.13328        44.56212        -0.04186
C         53.91102        43.85545        -0.12997
C         55.13638        45.97107        -0.24771
C         53.96144        46.65871        -0.46605
C         56.32657        29.57068         0.55387
C         56.32562        30.94460         0.62058
C         56.29729        33.87964         0.83456
C         56.29009        35.26977         0.85409
C         56.29749        38.18906         0.83140
C         56.30494        39.56222         0.75746
C         56.30986        42.49525         0.55441
C         56.32683        43.84945         0.29152
O         33.63171        42.33278        -1.00790
O         31.23467        45.67397         3.28570
O         49.64238        36.62348         1.68487
O         41.35405        43.36184        -2.14826
O         44.94610        23.62803        -1.34480
O         44.87526        37.67173        -2.62920
O         51.05288        41.79740        -1.81411
O         37.09256        25.24460         2.06945
O         35.26961        36.74592        -2.52694
O         31.49238        34.39878        -2.28391
O         35.42744        41.09107         1.93410
H         36.19117        40.47956         2.07868
O         45.20763        27.40805         1.96434
H         44.34871        27.78590         2.25298
O         29.25173        29.56436         1.79111
H         29.13502        28.62780         2.06039
O         42.74320        40.40004        -3.02390
H         43.53576        40.89784        -3.31692
O         39.34843        51.03937         2.12957
H         40.18762        51.54039         2.21277
O         40.15359        37.41903        -3.06492
H         39.33052        36.91378        -3.29696
O         40.19455        46.29406        -1.75949
H         40.61272        45.56240        -2.26455
O         37.82594        35.94695        -2.99878
H         36.93835        36.29874        -3.26633
O         42.55853        50.21480        -2.16918
H         42.46016        51.15087        -2.44650
O         49.33611        39.32296        -2.11555
H         49.65361        40.19556        -2.44126
O         31.57135        26.52144        -2.16088
H         32.32066        25.93274        -2.39553
O         42.87235        23.36225         2.30489
H         42.72233        22.48319         2.71476
O         50.55853        33.19363        -1.73218
H         49.86984        32.67317        -2.19868
O         45.41005        32.57620        -2.25441
H         45.38037        33.36543        -2.83516
O         38.26443        45.67391         2.31596
H         37.51869        45.16432         2.72102
O         32.83164        28.95352        -2.20459
H         32.19758        28.25347        -2.50233
O         46.66856        25.41210        -1.85280
H         46.26468        24.60027        -2.24495
O         35.87888        44.15806         2.73334
H         35.03140        43.93569         3.19638
O         52.26915        40.82004         2.04931
H         51.93224        40.03818         2.55270
O         33.14255        43.71037         3.13869
H         32.44668        44.20247         3.63873
O         51.90546        39.13161        -1.24594
H         51.79143        39.92545        -1.82301
O         45.17164        32.26234         1.38400
H         45.20967        31.48081         1.97425
O         53.76635        35.16566         2.66688
H         54.58199        34.70052         2.95292
O         37.74280        39.60748         1.25230
H         38.56498        39.84134         1.73273
O         47.78421        45.91229         1.41717
H         47.84252        46.84180         1.72618
O         41.52691        46.40091         1.66104
H         42.30007        46.86279         2.04635
O         36.72292        40.12981        -2.22393
H         35.91830        39.85911        -2.71418
O         51.14805        38.52709         2.28407
H         50.72725        37.73357         2.69716
O         32.88312        32.05289         1.46896
H         32.68772        31.20819         1.92946
O         35.27878        33.54562         1.26567
H         34.47350        33.09280         1.62303
H         26.93112        26.95343        -0.33207
H         25.68781        29.07848        -0.05890
H         25.68317        31.52556        -0.08293
H         25.70046        33.41784        -0.27739
H         25.71598        35.82866        -0.49730
H         25.75045        37.73020        -0.83302
H         25.79151        40.14642        -0.60456
H         25.82968        42.04189        -0.36366
H         25.80842        44.28080         0.65869
H         26.86535        45.91826         2.11695
H         29.05117        25.72283        -0.52019
H         28.90104        46.67745         3.39356
H         32.68304        23.64898         0.63137
H         30.65709        24.73505        -0.08148
H         33.00756        49.61501         1.88072
H         31.26317        48.29073         3.05908
H         34.32762        22.69285         0.87508
H         34.40459        50.58708         1.01031
H         36.39311        21.48746         1.04521
H         36.46472        51.85637         0.77623
H         40.12496        19.25240         0.73120
H         38.00834        20.49459         0.77348
H         40.06448        54.07679        -0.39731
H         38.02046        52.86618         0.19504
H         42.56759        19.22345         0.62919
H         42.59089        54.13809        -0.27580
H         44.71784        20.38510         0.22079
H         44.75812        52.96587        -0.18064
H         48.55525        22.57618         0.51331
H         46.49061        21.33391         0.48925
H         48.57229        50.80927        -0.44477
H         46.46415        52.01791        -0.37755
H         50.21715        23.47032         0.31062
H         50.19864        49.86890        -0.87617
H         52.30818        24.68333         0.38388
H         52.31870        48.67907        -0.88493
H         56.05392        26.88225         0.47097
H         53.94693        25.62986         0.35605
H         56.09099        46.51504        -0.20084
H         54.00253        47.74905        -0.59282
H         57.27557        29.01635         0.58919
H         57.28630        31.46855         0.71154
H         57.26938        33.37054         0.80927
H         57.26080        35.78207         0.80331
H         57.26182        37.66584         0.87277
H         57.27213        40.08175         0.73169
H         57.25488        42.00622         0.82782
H         57.27269        44.40659         0.36003
