         429
 CSIRO Nanostructure Databank - Neutral Graphene Oxide Data Set
C          1.90588         2.37818        -3.31378
C          1.69590         3.71426        -2.78575
C          2.93162         1.60254        -2.89776
C          2.65257         4.34027        -2.03666
C          1.35283         6.46136        -1.77675
C          1.28440         7.81839        -1.51875
C          2.55422         5.73073        -1.59100
C          2.42720         8.54735        -1.11324
C          1.19884        10.73253        -1.04459
C          1.18351        12.11271        -0.87352
C          2.39671         9.98222        -0.93808
C          2.37149        12.83293        -0.65734
C          1.14849        15.02595        -0.13867
C          1.13473        16.37343        -0.17830
C          2.38537        14.26868        -0.38588
C          2.40568        17.13054        -0.50671
C          2.43920        18.58051        -0.07816
C          3.80662         2.09148        -1.76284
C          3.97928         3.62132        -1.87024
C          5.15867         1.43117        -1.70430
C          4.77958         4.17038        -0.69387
C          3.67627         6.40712        -1.05374
C          3.64433         7.83251        -0.87531
C          4.91267         5.68539        -0.78726
C          4.82416         8.54189        -0.50901
C          3.61064        10.67629        -0.67691
C          3.60718        12.10455        -0.61741
C          4.83734         9.95549        -0.47277
C          4.84221        12.79009        -0.52361
C          3.58197        14.93787        -0.32928
C          3.59289        16.38745         0.10377
C          4.84465        14.26614        -0.79361
C          4.88516        17.11178        -0.17898
C          3.61951        19.22030         0.06996
C          4.89964        18.53303        -0.09723
C          6.23684         2.04309        -1.09132
C          6.09957         3.41490        -0.52445
C          7.51906         1.42981        -1.06522
C          7.36434         4.16854        -0.24972
C          6.05271         6.35064        -0.43820
C          6.02092         7.78811         0.00250
C          7.35543         5.64847        -0.41280
C          7.33659         8.53306        -0.07784
C          6.05949        10.66734        -0.22648
C          6.05197        12.09454        -0.30909
C          7.30285         9.94967        -0.02556
C          7.26806        12.83614        -0.12012
C          6.10756        14.98126        -0.39470
C          6.07986        16.38930        -0.32547
C          7.31967        14.24460        -0.23668
C          7.32998        17.14002        -0.56336
C          6.11080        19.24638        -0.12168
C          7.36245        18.59878        -0.29673
C          8.71028         2.10869        -0.69201
C          8.68016         3.50727        -0.35974
C          9.95399         1.44422        -0.71218
C          9.84493         4.20927        -0.02409
C          8.62845         6.40240        -0.19457
C          8.56349         7.86093         0.05158
C          9.84630         5.65607         0.19791
C          9.77173         8.54846         0.33762
C          8.51095        10.64787         0.24154
C          8.43368        12.10982         0.38768
C          9.73737         9.96900         0.44956
C          9.72525        12.87908         0.59376
C          8.59266        14.94182        -0.17604
C          8.61308        16.36546        -0.59492
C          9.76915        14.29232         0.16890
C          9.89318        17.13998        -0.52777
C          8.58805        19.25855        -0.16774
C          9.85556        18.59334        -0.22185
C         11.14082         2.11185        -0.33128
C         11.08414         3.49724         0.04392
C         12.38028         1.42951        -0.27656
C         12.24987         4.14386         0.53279
C         10.96991         6.34081         0.60985
C         11.00004         7.80829         0.60931
C         12.14697         5.52899         1.14543
C         12.18186         8.50863         0.86070
C         10.97023        10.70805         0.70184
C         10.97002        12.09579         0.68757
C         12.22020         9.96400         0.88120
C         12.18877        12.88736         0.90191
C         11.06731        14.94054         0.09161
C         11.15158        16.38161        -0.26636
C         12.22304        14.28742         0.42678
C         12.35400        17.13408         0.14755
C         11.04908        19.24921         0.05123
C         12.31545        18.56642         0.18561
C         13.53964         2.07630         0.18499
C         13.44892         3.44563         0.60876
C         14.78930         1.39629         0.25233
C         14.62476         4.09650         1.28419
C         13.45903         6.28078         1.04233
C         13.37697         7.74707         1.41942
C         14.63218         5.59780         1.02885
C         14.71965         8.48042         1.27873
C         13.42175        10.66070         1.03925
C         13.48352        12.13245         1.08123
C         14.71881         9.96906         1.17137
C         14.76082        12.83655         0.82632
C         13.54842        14.94088         0.09473
C         13.54342        16.43420         0.33183
C         14.78147        14.24900         0.63283
C         14.76528        17.13787         0.45766
C         13.52171        19.25964         0.37457
C         14.76342        18.57076         0.46014
C         15.98476         2.04742         0.62717
C         15.94604         3.42686         1.01860
C         17.23193         1.36188         0.51640
C         17.14810         4.15035         1.18909
C         15.93755         6.26308         0.81072
C         15.95839         7.78533         0.80135
C         17.18110         5.54610         1.04896
C         17.22859         8.50713         0.91072
C         15.97364        10.68116         0.86684
C         15.95646        12.08102         0.80451
C         17.22972         9.95350         0.87090
C         17.24562        12.79246         0.86834
C         15.97569        14.97854         0.62488
C         16.00670        16.41488         0.46298
C         17.25639        14.29352         0.84462
C         17.21827        17.11394         0.38270
C         16.00944        19.24936         0.49033
C         17.23189        18.54624         0.41784
C         18.45218         1.98199         0.83487
C         18.41248         3.37668         1.33322
C         19.68763         1.32147         0.79837
C         19.70883         4.12831         1.50188
C         18.49569         6.26282         0.79134
C         18.45488         7.79096         0.93330
C         19.62478         5.66130         1.65173
C         19.66230         8.49004         0.92672
C         18.43640        10.63177         0.68618
C         18.45580        12.08754         0.32518
C         19.68841         9.88647         0.37821
C         19.74276        12.81137         0.65363
C         18.52371        14.95794         0.50907
C         18.48953        16.38190         0.03843
C         19.72419        14.25945         0.57344
C         19.76288        17.12183         0.36053
C         18.48228        19.24036         0.40707
C         19.72775        18.57724         0.40988
C         20.93430         2.00362         0.98353
C         20.95626         3.42785         1.13571
C         22.16284         1.31643         0.87190
C         22.18091         4.12635         1.05292
C         20.98121         6.34613         1.38164
C         20.95899         7.81108         1.11834
C         22.13785         5.59876         0.71889
C         22.17110         8.47814         0.48025
C         20.95590        10.65235         0.68142
C         20.93350        12.11487         0.74377
C         22.12715         9.96308         0.79550
C         22.19289        12.84510         0.81282
C         20.98156        14.98188         0.53263
C         20.94920        16.42697         0.46005
C         22.19089        14.28603         0.68894
C         22.24942        17.16682         0.25704
C         20.93692        19.28882         0.56910
C         22.19899        18.62683         0.65005
C         23.39811         2.00022         0.96884
C         23.39043         3.42906         1.06300
C         24.64009         1.31584         0.85729
C         24.67015         4.15333         1.39367
C         23.44645         6.33687         0.90493
C         23.45667         7.75069         0.83694
C         24.65160         5.63221         1.06270
C         24.66306         8.44925         0.98960
C         23.35979        10.68665         1.15163
C         23.39113        12.15589         0.98018
C         24.64237         9.92120         1.19847
C         24.65242        12.85060         1.09486
C         23.44853        14.99948         0.79822
C         23.46556        16.42987         0.75210
C         24.65188        14.29902         1.01966
C         24.64354        17.13133         0.95990
C         23.35575        19.30378         0.95278
C         24.64479        18.60589         1.28146
C         25.87952         2.00699         0.76562
C         25.91128         3.43606         0.91583
C         27.09153         1.32422         0.53849
C         27.12447         4.12701         0.84071
C         25.87349         6.33235         1.11364
C         25.89493         7.74920         1.09076
C         27.13845         5.57156         1.19428
C         27.15883         8.46271         1.09666
C         25.89688        10.70009         1.01590
C         25.84826        12.15774         1.26335
C         27.17966         9.95150         1.00562
C         27.12494        12.88393         1.39444
C         25.89592        15.01029         1.02731
C         25.89219        16.43620         0.99461
C         27.13568        14.32243         1.08091
C         27.11878        17.14680         0.88913
C         25.89230        19.29022         0.79849
C         27.09569        18.59617         0.72697
C         28.32389         2.02099         0.36657
C         28.33624         3.46176         0.52117
C         29.49692         1.32615         0.05185
C         29.57578         4.18974         0.33452
C         28.43675         6.33390         1.08135
C         28.36774         7.80778         0.98898
C         29.62287         5.63693         0.53559
C         29.59543         8.54692         0.73964
C         28.45330        10.60743         1.52151
C         28.44423        12.13843         1.43762
C         29.64377         9.94968         0.87482
C         29.65134        12.85690         0.96139
C         28.36190        15.00493         0.94647
C         28.34506        16.43772         0.80465
C         29.60737        14.27764         0.83277
C         29.55981        17.14084         0.54784
C         28.32844        19.27105         0.48368
C         29.54672        18.57796         0.39519
C         30.70284         2.04753        -0.45682
C         30.71213         3.50137        -0.07479
C         32.03995         1.37110        -0.23026
C         31.94536         4.21540        -0.42525
C         30.74437         6.38548         0.23550
C         30.76830         7.83066         0.38259
C         31.95702         5.72575        -0.29122
C         31.97020         8.54574         0.19982
C         30.82080        10.68054         0.61384
C         30.82788        12.13342         0.65596
C         32.00787         9.95783         0.30226
C         32.03536        12.83391         0.32393
C         30.79686        14.98995         0.48818
C         30.77057        16.42266         0.36751
C         32.01571        14.28024         0.25593
C         31.95141        17.13063        -0.01384
C         30.76374        19.26825         0.13454
C         31.96596        18.58201        -0.09262
C         33.22581         2.05418        -0.31589
C         33.23644         3.50992        -0.40983
C         34.51485         1.36960        -0.36995
C         34.41211         4.22738        -0.50220
C         33.26738         6.36866        -0.13290
C         33.24146         7.79754         0.24238
C         34.43049         5.67121        -0.39496
C         34.54080         8.56275         0.25746
C         33.24226        10.67523         0.07662
C         33.21294        12.09911         0.03750
C         34.47276         9.99293        -0.07852
C         34.48233        12.78648        -0.23446
C         33.16450        15.00644        -0.15678
C         33.11156        16.40646        -0.33806
C         34.44683        14.30442        -0.33758
C         34.22691        17.14095        -0.97728
C         33.17968        19.27660        -0.37563
C         34.35021        18.60612        -0.78759
C         35.69951         2.01486        -0.54887
C         35.73583         3.53160        -0.74482
C         36.95719         1.24782        -0.76363
C         36.88746         4.27800        -0.07055
C         35.72694         6.42610        -0.71425
C         35.82959         7.74800         0.14183
C         36.99000         5.66426        -0.30786
C         37.02965         8.56798        -0.34735
C         35.61026        10.65824        -0.64758
C         35.56794        12.03217        -0.89192
C         36.78973         9.88661        -1.01318
C         36.63897        12.74138        -1.63053
C         35.53596        14.94337        -1.07242
C         35.45829        16.37719        -1.37820
C         36.62228        14.22888        -1.57030
C         36.71636        17.10236        -1.58757
C         35.56825        19.23900        -1.09395
C         36.75009        18.52364        -1.49346
C         38.06337         1.52119        -0.01862
C         37.99934         3.66751         0.50142
C         39.46922         1.16165        -0.12601
C         39.29862         4.24021         0.48404
C         38.20203         6.33354        -0.10578
C         38.29992         7.77835        -0.38827
C         39.40556         5.63565         0.20754
C         39.64460         8.26015        -0.79046
C         37.75788        10.49834        -1.75716
C         37.89569        11.93543        -2.03908
C         39.74884         9.49847        -1.42819
C         39.31408        12.48676        -2.04062
C         37.60325        14.97615        -2.26597
C         37.83766        16.35360        -1.99197
C         39.42738        13.83408        -2.45525
C         39.12855        16.95754        -2.18966
C         37.98556        19.13903        -1.79827
C         39.15533        18.39228        -2.11494
C         40.48716         1.98489         0.27914
C         40.47729         3.42124         0.55805
C         41.70601         4.09860         0.63079
C         40.68651         6.29407         0.25028
C         40.77827         7.70715        -0.15803
C         41.80383         5.49976         0.53272
C         41.89438         8.57651        -0.04284
C         40.72446        10.46276        -1.13771
C         40.52073        11.88817        -1.51721
C         41.82409         9.92834        -0.40659
C         41.62593        12.75638        -1.33602
C         40.46165        14.73664        -2.13788
C         40.34872        16.20853        -2.32958
C         41.59482        14.13247        -1.55858
C         41.53326        16.93227        -2.52549
C         40.39077        19.06387        -2.33821
C         41.54605        18.33872        -2.56464
O         21.31523         7.26782         2.45207
O         17.39391        13.51932         2.11328
O         15.87007         7.04641        -0.46982
O          8.18373         6.04754        -1.57119
O         10.77255        16.74381        -1.64583
O         34.94558        13.64065         0.88949
O         23.95860        10.26216         2.45214
O         12.77131        12.71535         2.24484
O          8.83173        12.60785         1.72801
O         37.96194         8.70631         0.79283
O         14.95696         9.25300         2.49478
O         38.37708        14.36158        -3.23408
O         27.95977         5.82614         2.38694
O         26.62452        10.43377        -0.26285
O         35.74651         6.64428        -2.08253
O          6.57651         3.59562         0.85726
O         19.05229         3.48039         2.64805
O         31.75749         5.09513        -1.60611
O         38.75722         9.75740        -2.37034
O          7.91408        16.68579        -1.84384
O         36.89448        12.32362        -3.02871
O         33.88445         8.19376         1.51121
O         27.87383        12.67604         2.68007
O         37.84548         2.40255         1.06813
O         34.40510        16.71773        -2.37838
O         18.80329         6.03329        -0.61191
H         18.00289         6.27756        -1.12793
O         22.05416         8.33989        -0.97170
H         21.24481         8.84721        -1.25705
O         28.53952        10.24018         2.92228
H         28.20985        11.01059         3.44368
O          4.76773         3.89960        -3.05083
H          4.25758         3.59862        -3.83228
O         22.42049        17.17689        -1.21068
H         21.66076        17.67147        -1.58686
O          4.81175        14.38464        -2.27268
H          4.69180        15.33671        -2.48394
O         13.67622        14.77204        -1.36450
H         13.01065        15.35430        -1.79316
O          2.58471        17.09629        -1.95133
H          1.82667        17.56007        -2.36345
O         11.89992         5.29440         2.57169
H         12.07088         6.15642         3.02909
O         19.22143         5.96743         2.98881
H         19.93644         5.70884         3.60584
O         36.00448         3.73491        -2.16886
H         35.90275         4.70802        -2.35680
O         18.32912        12.16329        -1.13941
H         18.95592        11.49405        -1.50863
O         13.07873         7.68359         2.85682
H         13.58784         8.42557         3.27600
O          3.39944        16.40888         1.54816
H          4.14857        15.93301         1.96320
O         21.85387         5.59826        -0.71284
H         21.93333         6.53365        -1.04041
O         30.52830         2.07238        -1.93762
H         31.15592         2.74227        -2.29043
O         18.47043        16.30117        -1.44666
H         19.17810        15.67616        -1.71543
O          4.00794         3.97536         0.50989
H          4.65030         3.87871         1.24884
O         14.39624         3.97033         2.72741
H         13.49216         4.34039         2.90757
O          5.79364         7.69158         1.47310
H          4.91372         7.27643         1.60534
O          3.09996         1.78327        -0.53103
H          2.99951         0.81074        -0.47787
O         24.74751         4.09106         2.86415
H         25.57309         4.54723         3.13834
O         19.70875         9.72422        -1.15184
H         18.93663         9.15595        -1.37315
O         24.73578        18.67273         2.76399
H         25.55636        18.20268         3.02685
O         36.10294         7.25114         1.45842
H         36.87532         7.75988         1.81070
H          1.19406         2.00446        -4.06505
H          0.74958         4.21327        -3.03851
H          3.05693         0.57772        -3.28046
H          0.45230         5.94752        -2.13933
H          0.33002         8.33689        -1.68056
H          0.24644        10.22009        -1.23555
H          0.22271        12.64300        -0.92867
H          0.21783        14.47209         0.05456
H          0.19449        16.92901        -0.03666
H          1.49094        19.13097         0.02752
H          5.28593         0.42509        -2.13587
H          3.64245        20.29527         0.30702
H          7.60384         0.38979        -1.41566
H          6.09266        20.33742         0.02185
H          9.99734         0.38065        -0.98864
H          8.58365        20.33772         0.05051
H         12.42817         0.37157        -0.57333
H         11.03222        20.33722         0.21798
H         14.83414         0.34369        -0.06479
H         13.51847        20.35975         0.38540
H         17.22988         0.31300         0.18382
H         16.02220        20.34951         0.50753
H         19.71385         0.25185         0.54096
H         18.47038        20.33969         0.45915
H         22.16002         0.22678         0.72306
H         20.89829        20.37707         0.73226
H         24.63687         0.21970         0.76230
H         23.30879        20.38659         1.15205
H         27.08234         0.22896         0.43724
H         25.89001        20.38475         0.68154
H         29.46474         0.22928        -0.03506
H         28.31940        20.36400         0.35730
H         32.05281         0.27062        -0.20077
H         30.74529        20.36587         0.06208
H         34.50089         0.27095        -0.29708
H         33.18179        20.37522        -0.31641
H         36.98611         0.50464        -1.57545
H         35.63148        20.33352        -1.00325
H         39.73301         0.16899        -0.52453
H         38.06361        20.23601        -1.76029
H         41.50403         1.56177         0.20717
H         42.63496         3.51272         0.70130
H         42.80119         5.96176         0.57514
H         42.80724         8.21957         0.45589
H         42.67257        10.57233        -0.13473
H         42.55896        12.33442        -0.93974
H         42.47008        14.73706        -1.28315
H         42.48087        16.39229        -2.65958
H         40.41781        20.16257        -2.31443
H         42.49661        18.86096        -2.74122
