         324
 CSIRO Nanostructure Databank - Neutral Graphene Oxide Data Set
C          1.24949         3.66403        -1.14331
C          0.07441         4.26708        -0.75416
C          1.21251         6.39468        -0.33586
C          0.05439         5.62134        -0.34717
C          1.21745         7.77914         0.16036
C          0.05157         8.39371         0.66922
C          1.25650        10.45752         1.17015
C          0.06000         9.71070         1.10866
C          1.25537        11.89610         1.47775
C          0.05648        12.59207         1.75543
C          1.19556        14.75110         1.71183
C          0.02741        13.97367         1.88225
C          1.18058        16.21518         1.73616
C         -0.03576        16.92469         1.72352
C          1.13474        19.06401         1.68132
C         -0.06085        18.31005         1.64918
C          1.14174        20.50430         1.42952
C         -0.05036        21.20508         1.21561
C          1.16004        23.16436         0.42147
C         -0.04435        22.50772         0.71747
C          1.18421        24.45222        -0.24576
C          0.05077        24.94463        -0.89252
C          1.27529        26.80056        -1.87537
C          0.12111        26.05758        -1.76944
C          1.41014        27.80678        -2.90040
C          3.67336         3.82349        -1.58407
C          2.46608         4.41111        -1.16584
C          3.64424         6.54060        -0.83338
C          2.44504         5.79347        -0.77248
C          3.61891         8.02629        -0.59159
C          2.42319         8.51465         0.19765
C          3.74410        10.46773         1.05020
C          2.45234         9.80160         0.77404
C          3.74018        11.94651         1.30117
C          2.44570        12.66226         1.37662
C          3.63743        14.86232         1.22880
C          2.41108        14.06885         1.48846
C          3.67008        16.29982         1.58541
C          2.39762        16.96261         1.75594
C          3.60296        19.16405         2.12698
C          2.35780        18.37941         1.81184
C          3.62252        20.56669         1.56872
C          2.38879        21.19812         1.26273
C          3.62946        23.24829         0.64702
C          2.39374        22.53726         0.76644
C          3.62580        24.60195         0.11357
C          2.43792        25.16055        -0.34388
C          3.69872        27.16880        -1.22624
C          2.34950        26.59810        -0.81756
C          3.81104        28.12174        -2.40771
C          2.58665        28.41732        -3.18436
C          6.08858         3.97649        -2.05830
C          4.86933         4.56889        -1.64135
C          6.07182         6.72839        -1.36156
C          4.84905         5.95698        -1.26090
C          6.15147         8.06143        -0.82824
C          4.96233         8.51076        -0.08641
C          6.25658        10.61929         0.49954
C          5.03123         9.81735         0.63728
C          6.20656        12.00724         0.87976
C          5.01496        12.66569         1.10662
C          6.21684        14.88966         1.10879
C          4.93563        14.13434         1.01213
C          6.17374        16.37105         1.33786
C          4.86992        17.03198         1.59412
C          6.07623        19.18408         1.92666
C          4.88232        18.43712         1.81797
C          6.09030        20.60562         1.87469
C          4.83821        21.28410         1.52391
C          6.03766        23.47676         1.26538
C          4.82271        22.64451         1.08695
C          6.13822        24.76476         0.51285
C          4.90162        25.31483        -0.04416
C          6.18396        27.21511        -1.05024
C          4.92672        26.49336        -0.76367
C          6.27966        27.92844        -2.35151
C          5.12132        28.26823        -3.03847
C          8.52306         4.09212        -2.39675
C          7.26868         4.73173        -2.16866
C          8.40147         6.98665        -2.14210
C          7.23114         6.13582        -1.85959
C          8.49571         8.34164        -1.54664
C          7.34032         8.81925        -0.82247
C          8.59174        10.92279        -0.32323
C          7.39074        10.11505        -0.16661
C          8.66984        12.24181         0.26778
C          7.54531        12.62344         1.21369
C          8.70512        14.92388         1.52560
C          7.45269        14.12794         1.47946
C          8.62218        16.40999         1.57839
C          7.42049        17.04784         1.76121
C          8.60342        19.22105         2.50217
C          7.33069        18.45489         2.20506
C          8.56101        20.71144         2.30447
C          7.33046        21.32504         1.99332
C          8.58319        23.55298         1.64202
C          7.28663        22.80840         1.80614
C          8.60835        24.88721         0.92049
C          7.35010        25.40718         0.33296
C          8.75877        27.05396        -1.04982
C          7.45638        26.66099        -0.45521
C          8.78084        27.79575        -2.28096
C          7.55546        28.14226        -2.91310
C         10.95443         4.16521        -2.15935
C          9.72803         4.80665        -2.41852
C         10.95819         7.06871        -2.57959
C          9.68133         6.27970        -2.57395
C         10.92791         8.54213        -2.20111
C          9.67072         9.10689        -1.61930
C         10.87367        11.29819        -1.22210
C          9.69676        10.41936        -1.02904
C         10.99338        12.57139        -0.49147
C          9.82897        13.01040         0.23331
C         11.16596        15.11742         0.89193
C          9.95938        14.25567         1.05116
C         11.10185        16.53336         1.35889
C          9.86623        17.12748         1.72975
C         11.09676        18.93557         2.64958
C          9.85179        18.43175         2.26329
C         11.04141        21.00907         2.72853
C          9.79659        21.49375         2.26610
C         11.08471        23.49420         1.56317
C          9.84778        22.81301         1.74653
C         11.09260        24.80775         0.92972
C          9.92320        25.39481         0.46236
C         11.14032        27.28845        -0.49086
C          9.94568        26.58237        -0.38647
C         11.23626        28.18811        -2.45129
C          9.97455        28.01996        -3.05383
C         13.29684         4.26831        -1.46330
C         12.17294         4.87174        -2.02134
C         13.49594         7.05853        -2.13055
C         12.24103         6.29535        -2.44226
C         13.42159         8.52352        -1.92599
C         12.23720         9.20361        -1.89599
C         13.43992        11.39878        -1.39556
C         12.20880        10.67146        -1.70877
C         13.42336        12.71423        -0.95058
C         12.19417        13.30652        -0.52331
C         13.54473        15.38040         0.16683
C         12.18981        14.78426        -0.18322
C         13.49480        16.76278         0.71037
C         12.29325        17.26999         1.41361
C         13.52701        19.32840         2.26245
C         12.31954        18.52820         2.08298
C         13.52087        20.72364         2.52155
C         12.30172        21.53568         2.38235
C         13.60434        23.63846         1.91485
C         12.31845        22.84532         1.85251
C         13.68593        24.75473         0.91217
C         12.40450        25.49106         0.74134
C         13.70071        27.26568        -0.67164
C         12.43159        26.78831        -0.00663
C         13.71681        27.93636        -2.06732
C         12.51731        27.96971        -2.93416
C         15.55473         4.34789        -0.46833
C         14.50436         4.98312        -1.16634
C         15.83181         7.05990        -1.24411
C         14.62685         6.36558        -1.48259
C         15.97178         8.48163        -1.55341
C         14.73381         9.22590        -1.89854
C         15.97530        11.38657        -1.31466
C         14.71557        10.72739        -1.67779
C         15.99501        12.76541        -1.02160
C         14.69583        13.55606        -1.06477
C         16.03060        15.41469         0.07955
C         14.73640        14.79623        -0.18532
C         16.10551        16.88119         0.51593
C         14.77018        17.50967         0.93366
C         15.91757        18.80768         2.64470
C         14.75403        18.58506         1.96539
C         15.98357        20.88994         2.90482
C         14.76894        21.49082         2.51475
C         16.10674        23.39500         1.72564
C         14.85024        22.80270         1.99409
C         16.15576        24.64115         0.94894
C         14.89421        25.29739         0.56087
C         16.23369        26.89867        -0.93550
C         14.96539        26.59828        -0.18325
C         16.20912        27.68741        -2.19633
C         15.01901        28.04686        -2.76472
C         17.78260         4.42552         0.62106
C         16.75860         5.02074        -0.21977
C         18.26906         6.93452        -0.75760
C         16.92613         6.34804        -0.70243
C         18.45501         8.35796        -1.24802
C         17.18697         9.15697        -1.48921
C         18.30623        11.42047        -1.69387
C         17.16559        10.62221        -1.50864
C         18.39693        12.76844        -1.30965
C         17.22805        13.46867        -0.88026
C         18.49361        15.51956         0.06198
C         17.23988        14.81645        -0.28617
C         18.49152        16.34666         1.33982
C         17.24549        17.17491         1.47158
C         18.41705        18.92028         2.94357
C         17.19990        18.22081         2.34011
C         18.43251        20.41257         2.42468
C         17.24415        21.33272         2.47876
C         18.61651        23.27632         1.75682
C         17.30204        22.63885         1.94155
C         18.65351        24.59313         0.92741
C         17.36118        25.08579         0.43009
C         18.69443        26.38135        -1.37956
C         17.38897        25.97535        -0.75163
C         18.68178        27.54734        -2.29979
C         17.48542        28.04195        -2.77418
C         18.96033         5.04918         0.86154
C         20.51938         7.02736         0.48748
C         19.35579         6.22799         0.07238
C         20.76404         8.24492        -0.03263
C         19.86394         8.94579        -0.97500
C         20.90653        11.29021        -0.52484
C         20.12783        10.38695        -1.18251
C         20.88062        12.68221        -0.93804
C         19.74613        13.31943        -1.36276
C         20.91589        16.06239        -0.17975
C         19.68911        15.43614        -0.60876
C         20.95164        16.86193         0.91718
C         19.72699        17.18975         1.60881
C         20.93284        18.99583         2.78524
C         19.70145        18.27347         2.45139
C         20.97246        20.33802         2.67988
C         19.77965        21.05789         2.18138
C         21.04306        23.10119         1.48969
C         19.85892        22.50961         1.87222
C         21.07968        24.30096         0.72362
C         19.93455        24.95208         0.29285
C         21.12930        26.57630        -1.17899
C         19.96961        25.96423        -0.75424
C         21.11870        27.59236        -2.18610
C         19.95176        28.06427        -2.72804
O          7.78713        18.69061         3.59423
O         13.73967        28.70231        -0.81016
O         15.93380        27.57005         0.32738
O         13.96636        17.80231        -0.25510
O         18.70299        24.58930         2.38686
O         11.15033        28.53781        -1.06957
O         19.43292        10.86952        -2.31512
O         11.07987        14.17534         2.00880
O          4.13841        14.57215        -0.14352
O          8.05745        14.43459         2.77363
O          8.76392         6.80768        -3.56184
O         17.86669        25.26986        -1.93842
O         10.92410         8.09555        -3.59796
O         14.83440        10.14881        -3.03048
O         11.31246        11.37747        -2.61189
O         12.48746        26.78614         1.47114
O         15.90438        19.73193         3.71016
O         19.22988         6.01780        -1.36523
O          3.76638        28.61778        -1.00724
O          6.38431        23.52448         2.69969
O         19.83444        14.66784        -1.77030
O         19.03054        20.39518         1.08816
O          6.38118        15.79847        -0.01971
O         13.20917         6.57709        -3.49476
O         19.49942         8.34241        -2.25813
O          5.18326         8.52693         1.35134
O         11.07159        19.93784         3.62417
O          6.78036        27.84460         0.12412
O          8.59062        24.80255         2.39066
O          3.83509        10.97526         2.42133
O          7.89623        11.95959         2.46045
H          8.25036        12.65645         3.06654
O         18.42127        15.36576         2.43635
H         18.49824        15.85923         3.28136
O         14.61645        14.11264        -2.42426
H         14.67917        13.36425        -3.05700
O         18.38828        18.88570         4.37382
H         17.51043        19.23187         4.65975
O         16.52218        17.60336        -0.68374
H         15.70382        17.75074        -1.21320
O          3.58081        19.31298         3.59864
H          4.39918        19.78968         3.85846
O         13.54015        24.31543         3.22135
H         12.97917        25.11649         3.12604
O         11.73599        15.48057        -1.37926
H         12.41442        15.33860        -2.07578
O          1.90753        27.35809         0.34657
H          2.25425        28.27286         0.22906
O          3.48976         8.66367        -1.90855
H          2.69450         8.29354        -2.34685
H          1.26391         2.60791        -1.44795
H         -0.86309         3.69394        -0.74475
H         -0.90457         6.05026        -0.02720
H         -0.90087         7.84716         0.67823
H         -0.89051        10.16017         1.42550
H         -0.88557        12.04012         1.87331
H         -0.93225        14.45981         2.10317
H         -0.98977        16.38099         1.71186
H         -1.03371        18.81292         1.57228
H         -1.01940        20.72336         1.40041
H         -1.00583        23.00748         0.54044
H         -0.89405        24.38724        -0.84476
H         -0.73546        26.27523        -2.42515
H          0.52182        28.02639        -3.51283
H          3.68217         2.76630        -1.88838
H          2.65682        29.14632        -4.00451
H          6.11025         2.90252        -2.29495
H          5.18447        28.68527        -4.05433
H          8.55704         2.99236        -2.39602
H          7.60874        28.65070        -3.88717
H         10.94626         3.08674        -1.94118
H          9.87349        28.10234        -4.14551
H         13.23756         3.20962        -1.16951
H         12.66290        27.73288        -3.99711
H         15.43310         3.30684        -0.13559
H         15.02315        28.56141        -3.73766
H         17.53133         3.49287         1.14735
H         17.49519        28.80979        -3.56240
H         19.66828         4.65172         1.60379
H         21.19183         6.60810         1.25099
H         21.63895         8.81198         0.31973
H         21.59338        10.98134         0.27595
H         21.80804        13.26825        -0.85363
H         21.82084        15.87336        -0.77223
H         21.88513        17.36224         1.21131
H         21.82042        18.43179         3.11070
H         21.86965        20.90824         2.95655
H         21.98893        22.55591         1.61934
H         22.05622        24.60158         0.31900
H         22.09558        26.30559        -0.73150
H         22.08000        28.01998        -2.50315
H         19.96934        28.87197        -3.47370
