         228
 CSIRO Nanostructure Databank - Neutral Graphene Oxide Data Set
C        -11.29964         0.92962        -0.10848
C        -10.34551         1.73403         0.64645
C         -8.71698         0.45418         1.33689
C         -7.51306         1.09230         1.76031
C         -6.26453         0.75702         1.26481
C         -5.00046         1.46177         1.53252
C         -3.78939         0.72839         1.58337
C         -2.49924         1.40876         1.84690
C         -1.19954         0.73272         1.67084
C         -0.01422         1.49495         1.68704
C          1.29228         0.77746         1.69926
C          2.54940         1.49853         1.32522
C          3.65276         0.83735         0.89125
C          4.88389         1.59501         0.42448
C          6.17507         0.80172         0.80985
C          7.46991         1.51339         0.98168
C          8.71808         0.73927         0.73526
C          9.97553         1.46596         0.59749
C         11.18231         0.67235         0.40483
C         -9.82070         2.94230         0.25351
C         -8.60990         3.67766         0.63601
C         -7.60590         3.27457         1.53111
C         -6.22138         3.73826         1.48712
C         -5.02002         2.92781         1.55633
C         -3.77069         3.59379         1.36258
C         -2.49670         2.94467         1.68420
C         -1.22465         3.63270         1.40930
C         -0.01945         2.93919         1.56822
C          1.27021         3.71255         1.61822
C          2.58112         2.97139         1.54263
C          3.82095         3.70028         1.16516
C          4.97915         3.01998         0.91465
C          6.25256         3.71364         0.69941
C          7.55622         3.03777         1.06621
C          8.75343         3.61141         0.34422
C          9.96036         2.82300         0.33966
C         -8.37900         4.82886        -0.25575
C         -7.64440         5.94024         0.06279
C         -6.06300         5.12693         1.37544
C         -4.84957         5.70754         1.05382
C         -3.69756         4.93259         0.89965
C         -2.45972         5.54843         0.46680
C         -1.26703         4.97002         0.86596
C         -0.04937         5.81674         0.88494
C          1.24988         5.21247         1.32716
C          2.53644         5.94898         0.98730
C          3.82881         5.17543         0.99472
C          4.91436         5.64880         0.03131
C          6.25557         5.01655         0.29900
C          7.48367         5.68148        -0.13080
C          8.70132         4.88902        -0.15314
C         -7.31937         7.01065        -0.88805
C         -6.12212         7.64832        -1.13826
C         -4.83571         7.34913        -0.49206
C         -3.67378         7.23412        -1.18756
C         -2.41009         6.52050        -0.71319
C         -1.25309         7.47805        -0.65134
C         -0.11540         7.15809         0.19411
C          1.21635         7.89266        -0.11390
C          2.49077         7.20514         0.16075
C          3.64679         7.78319        -0.32476
C          4.96031         7.15354        -0.03075
C          6.23683         7.81095        -0.46326
C          7.45080         6.97561        -0.59218
C         -5.98234         8.52639        -2.30071
C         -4.78464         8.73040        -2.88456
C         -3.53030         7.97908        -2.50374
C         -2.32053         8.88253        -2.37932
C         -1.23033         8.58960        -1.54100
C         -0.01040         9.34857        -1.70428
C          1.18947         8.94944        -1.14826
C          2.43605         9.55092        -1.51686
C          3.63716         9.01425        -1.09177
C          4.90048         9.61888        -1.48905
C          6.11047         9.07880        -1.20907
C        -11.16909        -0.42255        -0.27966
C         -9.98193        -1.22961        -0.02882
C         -8.76220        -0.62279         0.46761
C         -7.48112        -1.24025         0.20336
C         -6.32087        -0.28869         0.21716
C         -4.90379        -1.59727         1.51046
C         -3.69310        -0.71436         1.48274
C         -2.49000        -1.41200         1.46895
C         -1.20735        -0.71836         1.52404
C         -0.01806        -1.42943         1.42089
C          1.27430        -0.73314         1.50372
C          2.45424        -1.41897         0.93611
C          3.63424        -0.60356         0.45242
C          4.93877        -1.37676         0.81943
C          6.16558        -0.60832         0.46884
C          7.39788        -1.21863        -0.12622
C          8.66077        -0.59553         0.44591
C          9.89162        -1.46884         0.52098
C         11.15681        -0.67619         0.32452
C         -9.89788        -2.55330        -0.43451
C         -8.68040        -3.31352        -0.30446
C         -7.44928        -2.61552         0.02939
C         -6.24286        -3.42324         0.35094
C         -4.88078        -2.75392         0.47644
C         -3.78689        -3.64407         1.03611
C         -2.53278        -2.92092         1.46177
C         -1.24703        -3.70326         1.35071
C          0.03749        -2.91066         1.32044
C          1.23752        -3.55379         0.75361
C          2.44607        -2.77237         0.66038
C          3.67272        -3.43217         0.19952
C          4.86531        -2.75905         0.20758
C          6.07406        -3.33760        -0.46823
C          7.36238        -2.74494         0.10897
C          8.61539        -3.41526        -0.41247
C          9.80174        -2.73874        -0.29345
C         -8.65342        -4.66994        -0.64129
C         -7.48674        -5.49524        -0.52681
C         -6.27359        -4.90128         0.10928
C         -4.94591        -5.57910        -0.20243
C         -3.72140        -5.02264         0.50194
C         -2.52347        -5.67164         0.38514
C         -1.24905        -5.01875         0.65555
C         -0.07672        -5.56132         0.15165
C          1.18712        -4.86208         0.26406
C          2.40783        -5.51061        -0.19581
C          3.61974        -4.83039        -0.19516
C          4.86240        -5.51580        -0.50550
C          6.07447        -4.83817        -0.51111
C          7.31664        -5.49969        -0.81603
C          8.51733        -4.77567        -0.85872
C         -7.46447        -6.80782        -0.94549
C         -6.33557        -7.70228        -0.61132
C         -5.07397        -7.08648        -0.08826
C         -3.79618        -7.87344        -0.15663
C         -2.49329        -7.11284         0.02162
C         -1.29160        -7.67527        -0.55936
C         -0.13222        -6.74582        -0.80304
C          1.16290        -7.50067        -0.93561
C          2.36660        -6.88607        -0.67359
C          3.61378        -7.58552        -0.92826
C          4.83458        -6.92552        -0.80666
C          6.08176        -7.61275        -1.06308
C          7.27751        -6.91163        -1.06938
C         -6.23170        -9.05753        -1.20235
C         -5.04891        -9.70494        -1.33779
C         -3.77409        -9.13631        -0.92159
C         -2.56617        -9.71887        -1.20364
C         -1.30270        -9.00675        -1.05592
C         -0.12754        -9.58314        -1.54226
C          1.12107        -8.77992        -1.73436
C          2.38075        -9.58493        -1.62557
C          3.57698        -8.98302        -1.32085
C          4.84005        -9.69040        -1.42770
C          6.02749        -9.03571        -1.32294
O         -5.57402        -0.19416        -0.77581
O          1.04931        -8.31759        -3.17337
H          1.94925        -8.00425        -3.41266
O          0.38968         8.23349         1.03736
O          0.41927         5.93372         2.27737
O         -3.08221        -7.95137         1.10537
O         -0.42411        -3.61032         2.54642
O         -0.39305        -6.15408        -2.13398
H         -0.10305        -6.83137        -2.79743
O          3.53501        -0.57665        -0.99200
H          4.01395         0.26549        -1.28564
O         -3.47630        -3.48307         2.44200
O         -7.16846         6.00334         1.39718
O         -2.07917         5.56927        -1.82155
H         -2.80468         4.90894        -1.86303
O          7.80051         3.35553         2.46596
H          7.16533         2.81954         2.99371
O         -2.53196         2.30008         2.99560
O         -6.47828        -4.38019         1.44168
O          1.49758        -0.11476         2.83355
O          2.02602         3.39327         2.83357
O          6.67863         1.05254         2.16942
O         -4.37681        -2.44890        -0.84379
H         -4.82131        -1.62827        -1.18756
O         -5.72499        -1.58657         2.40864
O         -7.77832         2.25147         2.49774
O          3.48444         6.02426         2.11123
O          7.50080        -0.88095        -1.53454
H          6.85980        -1.45183        -2.02900
O          4.48831         5.20656        -1.29510
H          4.63410         4.23329        -1.35021
O          4.84483         1.71704        -0.96352
O         -3.24463         7.09990        -3.62993
H         -2.51116         6.50427        -3.33530
O         -4.70376        -5.31560        -1.62194
H         -4.48993        -4.35493        -1.70953
O          7.30396        -2.94591         1.54557
H          8.20255        -2.72566         1.90900
O          4.94390        -1.52276         2.26554
H          5.75178        -2.04590         2.48725
O         -9.88129         1.06824         1.80544
O          5.96976        -2.94488        -1.88987
H          5.03020        -3.04240        -2.15596
O         -4.84848         7.08669         0.88231
O         -6.02343        -7.61577         0.85465
O          5.75456         7.85272         0.95336
O          9.90686        -1.95324         1.93491
H         10.04784        -1.16818         2.50836
H         12.09044        -1.23673         0.16417
H         12.13247         1.21196         0.27077
H         10.89907         3.31500         0.03859
H          9.60267         5.33877        -0.59870
H          8.36388         7.43905        -0.99677
H          7.02777         9.56078        -1.58025
H          4.84444        10.55461        -2.06574
H          2.42597        10.43668        -2.16924
H         -0.01352        10.17454        -2.43127
H         -2.21826         9.70640        -3.10311
H         -4.71201         9.38704        -3.76450
H         -6.88518         9.01602        -2.69698
H         -8.12038         7.21449        -1.62089
H         -8.86111         4.79352        -1.24517
H        -10.31414         3.37250        -0.63403
H        -12.16355         1.43342        -0.57161
H        -11.97734        -0.94197        -0.81989
H        -10.78988        -3.06224        -0.83012
H         -9.58244        -5.14025        -0.99872
H         -8.34690        -7.23999        -1.44216
H         -7.15472        -9.52588        -1.57640
H         -5.02616       -10.69790        -1.81195
H         -2.53887       -10.69273        -1.71614
H         -0.15297       -10.60313        -1.95384
H          2.35857       -10.63805        -1.94435
H          4.81516       -10.76760        -1.64802
H          6.97466        -9.57994        -1.45152
H          8.21923        -7.44171        -1.27743
H          9.44396        -5.29909        -1.14153
H         10.74065        -3.20932        -0.62545
