         324
 CSIRO Nanostructure Databank - Neutral Graphene Oxide Data Set
C          1.11128         3.41344         0.12036
C         -0.06079         4.11888         0.37732
C          1.05211         6.33586         0.15752
C         -0.13591         5.51025         0.37564
C          1.05574         7.84552         0.40488
C         -0.18127         8.55300         0.80160
C          1.09026        10.58913         1.43260
C         -0.16369         9.84474         1.16495
C          1.07270        12.12384         1.50919
C         -0.10680        12.85058         1.00217
C          1.17219        14.91374         0.56423
C         -0.03492        14.10653         0.49763
C          1.20691        16.27551         0.15947
C          0.04003        16.93956        -0.38151
C          1.35441        18.95008        -0.94656
C          0.09555        18.19435        -0.89191
C          1.35658        20.48240        -1.18916
C          0.09855        21.23584        -1.25931
C          1.20035        23.39701        -0.87612
C          0.04249        22.59742        -1.03452
C          1.17137        24.83809        -0.86073
C         -0.04827        25.57818        -0.99916
C          1.14032        27.70668        -0.86415
C         -0.06159        26.95696        -0.98486
C          1.14746        29.13423        -0.78888
C          3.62633         3.24854        -0.27341
C          2.38417         4.09108        -0.15845
C          3.58257         6.39516         0.40208
C          2.37443         5.61099         0.02386
C          3.55828         7.85021         0.47820
C          2.34475         8.55346         0.66030
C          3.59498        10.62356         1.06341
C          2.37101         9.90391         1.10705
C          3.69408        12.07340         1.40647
C          2.37469        12.88795         1.55386
C          3.38311        15.19141         1.48210
C          2.31490        14.33683         1.19930
C          3.56203        16.46932         0.88366
C          2.41931        17.04569         0.25826
C          3.67599        19.15067         0.00578
C          2.51354        18.38180        -0.23575
C          3.66966        20.58427        -0.26702
C          2.55200        21.22350        -0.74568
C          3.70598        23.45686        -0.54126
C          2.53050        22.70255        -1.07795
C          3.63914        24.91928        -0.29149
C          2.37292        25.58427        -0.73847
C          3.60898        27.73160        -0.68575
C          2.37483        26.99884        -0.76773
C          3.58730        29.15236        -0.58297
C          2.31949        29.82940        -0.62122
C          6.16174         3.28126         0.01878
C          4.79602         3.60568         0.32941
C          6.04768         6.40238         0.87590
C          4.71992         5.78612         0.86102
C          6.06693         7.83530         0.51745
C          4.79554         8.54497         0.52493
C          5.93892        10.68596         0.12268
C          4.76091         9.95790         0.61806
C          6.03325        12.13375         0.32779
C          4.95301        12.77724         1.02485
C          6.16011        14.96272         0.76200
C          5.16858        14.09054         1.37478
C          6.11873        16.42664         1.14259
C          4.82448        17.15752         0.88178
C          6.14016        19.26647         0.63309
C          4.85405        18.50883         0.52827
C          6.14078        20.74034         0.42739
C          4.78820        21.43242         0.32134
C          6.13522        23.52240        -0.30615
C          4.88973        22.81134        -0.27071
C          6.10997        24.90742        -0.64435
C          4.91069        25.62561        -0.67743
C          6.07047        27.79878        -0.81369
C          4.87324        27.05556        -0.76555
C          6.05759        29.20812        -0.52867
C          4.79740        29.85810        -0.42636
C          8.53923         3.51306        -0.08456
C          7.27992         4.09974         0.23073
C          8.55793         6.32630         0.34222
C          7.30334         5.55482         0.63525
C          8.55225         7.78623         0.27895
C          7.27003         8.46674         0.26850
C          8.49055        10.63570        -0.19579
C          7.24144         9.88403        -0.09671
C          8.30841        11.98391        -0.47973
C          7.22503        12.79024        -0.00253
C          8.67962        15.03027         0.33478
C          7.37546        14.28249         0.12179
C          8.65688        16.35173         0.68587
C          7.41610        17.12972         0.92277
C          8.57375        19.16293         0.09688
C          7.43237        18.54278         0.48680
C          8.55156        20.56122        -0.48220
C          7.36211        21.40588        -0.08634
C          8.63177        23.46658        -0.62071
C          7.37605        22.78023        -0.33120
C          8.65778        24.88046        -0.83170
C          7.36281        25.58194        -1.01966
C          8.62881        27.83468        -1.04544
C          7.32826        27.09613        -1.11109
C          8.57369        29.33860        -0.56459
C          7.26194        29.90511        -0.28709
C         10.98526         3.52087        -0.29652
C          9.76104         4.19735        -0.02315
C         11.03623         6.32272         0.39401
C          9.74430         5.62627         0.21342
C         11.04548         7.84602         0.48478
C          9.74086         8.50826         0.07848
C         10.99801        10.65171        -0.04605
C          9.77621         9.95508        -0.10247
C         11.12038        12.07446         0.36205
C         10.12306        13.06655        -0.04046
C         11.12837        14.92197         1.12911
C          9.93645        14.29906         0.50594
C         11.18009        16.42812         1.09101
C          9.87475        17.21763         0.97318
C         11.11489        19.22951         0.11856
C          9.87254        18.37695        -0.03708
C         11.08369        20.57962        -0.18536
C          9.85161        21.31856        -0.33600
C         11.11639        23.42172        -0.79277
C          9.84494        22.70554        -0.53528
C         11.12571        24.90100        -1.01499
C          9.84965        25.63637        -0.89238
C         11.06462        27.80399        -0.65164
C          9.88066        27.07751        -0.84842
C         11.03175        29.18495        -0.20898
C          9.80629        29.85076        -0.01230
C         13.43633         3.49141        -0.60463
C         12.23361         4.15743        -0.30317
C         13.56241         6.32360        -0.15176
C         12.30935         5.57812         0.11866
C         13.57362         7.73463        -0.14842
C         12.27533         8.45104        -0.18162
C         13.59040        10.63796        -0.04591
C         12.28796         9.95256        -0.21670
C         13.68010        11.99317         0.35499
C         12.43661        12.68261         0.77984
C         13.72807        14.92875         0.96362
C         12.44130        14.16543         1.06908
C         13.67663        16.40253         0.70873
C         12.46897        17.08501         0.76304
C         13.69082        19.21938         0.14786
C         12.38907        18.54825         0.49988
C         13.65499        20.57533        -0.47737
C         12.35406        21.29870        -0.48711
C         13.57726        23.46834        -0.28706
C         12.39663        22.76829        -0.46267
C         13.63406        24.92483        -0.39534
C         12.43614        25.62854        -0.89883
C         13.60117        27.80680        -0.26475
C         12.38543        27.14172        -0.74696
C         13.52116        29.21960         0.08618
C         12.23840        29.83286         0.15889
C         15.88948         3.47361        -0.88051
C         14.68573         4.16240        -0.62329
C         15.96237         6.30266        -0.61567
C         14.73487         5.59973        -0.44224
C         15.98788         7.73049        -0.55272
C         14.76816         8.45605        -0.37164
C         16.00661        10.62180        -0.39936
C         14.78419         9.91076        -0.28753
C         16.07916        12.01741        -0.15520
C         14.90356        12.69292         0.28826
C         16.23515        14.88407         0.36437
C         14.98262        14.13400         0.67339
C         16.18691        16.35721         0.20554
C         14.93144        17.07497         0.35054
C         16.15114        19.12991        -0.34957
C         14.91657        18.42414         0.02161
C         16.16242        20.66458        -0.38494
C         14.87901        21.37776        -0.28912
C         16.04456        23.42798         0.33275
C         14.82518        22.73030        -0.12166
C         16.00701        24.94559         0.38520
C         14.79475        25.65081        -0.13130
C         16.07188        27.85138        -0.02384
C         14.79140        27.09989        -0.17289
C         16.04753        29.39068         0.11731
C         14.67076        29.93103         0.38274
C         18.34221         3.44428        -1.21480
C         17.12004         4.15037        -0.98287
C         18.39533         6.27729        -1.01513
C         17.16215         5.58188        -0.87524
C         18.42731         7.71244        -0.95562
C         17.21606         8.41712        -0.76615
C         18.54241        10.61294        -0.90149
C         17.19498         9.88235        -0.86315
C         18.56490        12.03084        -0.50675
C         17.35791        12.72220        -0.26278
C         18.63212        14.82639        -0.22642
C         17.42113        14.14090        -0.11834
C         18.63683        16.31618        -0.45932
C         17.37862        17.02843        -0.03953
C         18.63478        19.17556        -0.06835
C         17.42595        18.45215        -0.12752
C         18.62272        20.62273         0.02298
C         17.40607        21.35581        -0.04530
C         18.54324        23.47041         0.48004
C         17.35232        22.73956         0.27063
C         18.50843        24.91670         0.63304
C         17.29922        25.62332         0.49597
C         18.42891        27.80417         1.04830
C         17.30546        27.09389         0.37181
C         18.40923        29.27888         1.07741
C         17.03686        29.89524         1.19355
C         19.53701         4.11520        -1.31941
C         20.82717         6.23960        -1.31936
C         19.59599         5.53852        -1.22047
C         20.87484         7.61347        -1.20030
C         19.69851         8.39554        -1.01816
C         20.97669        10.51051        -0.60168
C         19.77160         9.81165        -0.83540
C         21.00909        11.88959        -0.44890
C         19.82827        12.68341        -0.40185
C         21.06995        14.86733        -0.15365
C         19.86670        14.11957        -0.28199
C         21.07373        16.25271         0.02030
C         19.90141        17.02761        -0.03376
C         21.05686        19.21013         0.32013
C         19.88143        18.45348         0.07580
C         21.03249        20.58998         0.42221
C         19.83190        21.33381         0.28874
C         20.98624        23.52851         0.53671
C         19.80213        22.77681         0.43659
C         20.95765        24.91643         0.72376
C         19.75983        25.62170         0.79408
C         20.94515        27.91111         1.17329
C         19.74178        27.06200         1.17268
C         20.84721        29.26536         1.23679
C         19.57815        29.95662         1.24647
O          1.62082        19.52693        -2.27244
O         16.16537        19.87006        -1.62407
O          9.33618        12.68552        -1.12099
O          7.26742        26.26195        -2.32144
O         18.83413        27.24330         2.33348
O          0.93141        11.30376         2.70520
O         17.07952        27.48964        -1.04702
O         12.96139        20.72457        -1.74327
O          6.87931        16.86886         2.29270
O          6.33704        14.90444        -0.69793
O         11.56475        12.06483         1.77641
O         12.15093         9.11987        -1.46482
O          8.72342        28.89690        -1.97934
O          6.26996        20.17360         1.80279
O         13.21962        14.48044         2.26073
O         11.81233         5.74726         1.51271
O          4.38785        14.72370         2.34947
O         11.13822        23.98049        -2.16799
O         15.75905        24.12475         1.59714
O          0.92159         7.31689        -0.95763
O          6.32835        10.20589        -1.20385
O         11.05595        15.67804         2.36049
O         12.65059        26.49409        -2.04893
O          2.39849         5.01976        -1.32328
O         13.16336        19.29341         1.52156
O         17.74974        10.38617        -2.12505
O         15.95345        14.41252         1.74523
O          3.16977        12.48777         2.69718
O          6.87451         5.92856         1.99061
O          4.64695         4.51265         1.40105
O          2.73445        22.74904        -2.54550
H          2.10698        22.11008        -2.94903
O          8.42898        20.31270        -1.94749
H          8.57071        21.17044        -2.40583
O          9.91464        17.81726        -1.37435
H          9.61425        18.52408        -1.99263
O          3.58767        25.02393         1.20403
H          3.88639        24.16253         1.57639
O         16.49786        29.50545         2.46591
H         17.22036        29.49394         3.12715
O          4.33065        21.73914         1.67958
H          4.83940        21.13557         2.28026
O         16.46548        29.97114        -1.14297
H         16.86455        29.24633        -1.67947
O          9.67564        17.86339         2.24548
H          9.81307        17.18480         2.94390
O         18.62636        16.44188        -1.93728
H         19.46610        16.05561        -2.26661
O         11.18157         8.19693         1.89209
H         11.50874         7.39211         2.36083
H          1.10642         2.31625         0.18731
H         -0.98180         3.54887         0.56973
H         -1.11548         5.99495         0.48585
H         -1.14213         8.03676         0.66670
H         -1.10795        10.34498         1.42282
H         -1.07440        12.32990         0.99843
H         -0.95119        14.55563         0.09168
H         -0.91967        16.40611        -0.40210
H         -0.80085        18.63654        -1.34796
H         -0.83040        20.69294        -1.48017
H         -0.94797        23.07542        -1.03122
H         -1.00086        25.04096        -1.10371
H         -1.01804        27.49395        -1.06623
H          0.18961        29.67207        -0.84381
H          3.62541         2.51171        -1.09054
H          2.30545        30.92618        -0.54192
H          6.35073         2.31304        -0.47189
H          4.77119        30.94691        -0.27226
H          8.55327         2.44484        -0.34903
H          7.21409        30.90842         0.16106
H         10.93865         2.44744        -0.53511
H          9.78305        30.77801         0.57798
H         13.40789         2.41674        -0.83956
H         12.18549        30.88204         0.48583
H         15.86598         2.38071        -1.00546
H         14.59027        30.99199         0.66343
H         18.31294         2.34831        -1.29990
H         17.10789        31.01748         1.13025
H         20.47066         3.55853        -1.48653
H         21.75425         5.67115        -1.48220
H         21.84863         8.11638        -1.27546
H         21.92685         9.96003        -0.56286
H         21.98666        12.37486        -0.32498
H         22.03425        14.34180        -0.13023
H         22.04205        16.74144         0.20070
H         22.01909        18.69472         0.44422
H         21.97669        21.10999         0.63279
H         21.96452        23.03358         0.48245
H         21.91278        25.44794         0.83520
H         21.93563        27.44259         1.08369
H         21.76290        29.87348         1.25107
H         19.57490        31.05309         1.33353
