         424
 CSIRO Nanostructure Databank - Neutral Graphene Oxide Data Set
C          1.44040         2.14083        -1.56582
C          1.51819         3.48959        -1.94811
C          2.55750         1.47731        -1.08875
C          2.71887         4.21164        -1.82510
C          1.87257         6.11800        -3.16032
C          2.07792         7.35511        -3.76752
C          2.85173         5.58170        -2.31311
C          3.20364         8.10730        -3.43735
C          2.06438        11.16428        -3.76789
C          1.88211        12.41989        -3.18785
C          3.19501        10.41191        -3.45158
C          2.89971        12.98460        -2.40234
C          1.61996        15.12185        -2.03386
C          1.57781        16.46094        -1.63242
C          2.79774        14.35860        -1.92190
C          2.69686        17.08409        -1.06430
C          2.71815        18.50674        -0.75394
C          3.78955         2.17290        -0.93163
C          3.85314         3.56883        -1.26151
C          4.94472         1.50616        -0.48265
C          5.06682         4.29921        -1.04414
C          4.02719         6.34541        -2.01261
C          4.16167         7.69949        -2.47708
C          5.12319         5.70726        -1.34853
C          5.26754         8.53958        -2.02330
C          4.18403        10.84032        -2.53186
C          4.08115        12.21815        -2.13191
C          5.28819        10.00600        -2.08043
C          5.22101        12.87043        -1.57229
C          3.94738        14.97579        -1.34827
C          3.89163        16.32389        -0.88743
C          5.17391        14.25971        -1.23872
C          5.04711        16.93685        -0.32268
C          3.77047        19.07661        -0.12726
C          4.86528        18.21199         0.45140
C          6.16842         2.20020        -0.29054
C          6.20645         3.63026        -0.54972
C          7.30677         1.52779         0.15413
C          7.44043         4.34068        -0.39387
C          6.30182         6.45192        -1.09841
C          6.31337         7.86507        -1.34087
C          7.49082         5.75173        -0.65710
C          7.46492         8.61892        -0.82813
C          6.42351        10.71570        -1.57003
C          6.42556        12.14143        -1.42188
C          7.59581        10.03765        -1.12730
C          7.62307        12.82860        -1.04865
C          6.35510        14.93980        -0.83648
C          6.29664        16.30926        -0.39526
C          7.58501        14.23175        -0.81174
C          7.51965        17.03158        -0.09748
C          6.15618        18.91015         0.74119
C          7.39789        18.36779         0.53188
C          8.52933         2.26822         0.59283
C          8.61022         3.65613         0.00958
C          9.80166         1.48502         0.42731
C          9.86081         4.30493        -0.02242
C          8.72730         6.41380        -0.53320
C          8.75254         7.87677        -0.45355
C          9.93422         5.70531        -0.30689
C         10.02107         8.60220        -0.55504
C          8.80837        10.70586        -0.85576
C          8.84943        12.13003        -0.88862
C         10.03775         9.96832        -0.64323
C         10.07505        12.84392        -0.63302
C          8.79794        14.94125        -0.56649
C          8.72744        16.36863        -0.35072
C         10.03019        14.26361        -0.53026
C         10.00662        17.03773        -0.32290
C          8.52260        19.04335         1.19169
C          9.82135        18.94773         0.75323
C         11.01942         2.10677         0.29856
C         11.07532         3.56589         0.15879
C         12.25754         1.37362         0.38757
C         12.28781         4.23750         0.15179
C         11.18698         6.38461        -0.25507
C         11.30220         7.82216        -0.70614
C         12.35042         5.66755         0.04049
C         12.48215         8.55846        -0.10615
C         11.36908        10.68686        -0.79802
C         11.30105        12.15137        -0.44655
C         12.50252         9.94733        -0.11093
C         12.47153        12.82951         0.02742
C         11.34014        15.00781        -0.49605
C         11.19256        16.43380        -0.03262
C         12.47014        14.24286         0.13414
C         12.44125        17.26555         0.16970
C         11.07228        19.20755         1.38090
C         12.27202        18.56332         1.00391
C         13.49346         2.00506         0.40635
C         13.57986         3.47376         0.05888
C         14.71315         1.30034         0.58609
C         14.68202         4.19256         0.79347
C         13.60288         6.37488         0.28665
C         13.62527         7.81292         0.31725
C         14.75028         5.66124         0.65028
C         14.78276         8.50180         0.76396
C         13.64865        10.65985         0.37566
C         13.64119        12.09234         0.43446
C         14.78984         9.93365         0.82379
C         14.76214        12.79096         0.98363
C         13.58692        14.95149         0.64483
C         13.57710        16.40901         0.73053
C         14.71443        14.20830         1.10031
C         14.71970        17.08622         1.14632
C         13.46969        19.18613         1.38544
C         14.72363        18.53908         1.25886
C         15.94733         1.96106         0.77062
C         15.93482         3.41689         1.05855
C         17.17850         1.29899         0.79669
C         17.20047         4.16288         1.10482
C         15.96535         6.33041         0.96691
C         15.97770         7.75372         1.06312
C         17.17913         5.58999         1.14896
C         17.16987         8.42734         1.41291
C         15.93217        10.63985         1.34326
C         15.90626        12.02693         1.44537
C         17.07300         9.82899         1.96202
C         17.03832        12.71651         2.13895
C         15.73804        14.94981         1.92970
C         15.91956        16.38228         1.48827
C         17.06088        14.22533         2.16538
C         17.14011        17.05951         1.50639
C         15.93255        19.21873         1.36956
C         17.16639        18.50838         1.34679
C         18.40944         2.00146         0.96314
C         18.40650         3.45173         1.07831
C         19.63053         1.32000         0.96808
C         19.64564         4.16239         1.14478
C         18.40394         6.30320         1.27475
C         18.39151         7.72584         1.44398
C         19.63832         5.59087         1.25875
C         19.63585         8.42684         1.63075
C         18.41244        10.55478         1.98187
C         18.34308        11.98583         2.37958
C         19.60905         9.87173         1.88378
C         19.62932        12.79692         2.65174
C         18.38686        14.94668         2.03428
C         18.38898        16.36126         1.61334
C         19.64538        14.18030         1.98486
C         19.59934        17.01034         1.35596
C         18.38028        19.17367         1.24124
C         19.61784        18.45946         1.15229
C         20.87395         2.01065         1.04220
C         20.87028         3.45201         1.11854
C         22.09757         1.32509         1.00957
C         22.10224         4.16625         1.12404
C         20.86099         6.31136         1.32508
C         20.83760         7.72640         1.54120
C         22.10055         5.59645         1.18471
C         22.16326         8.41041         1.78409
C         20.88764        10.57196         1.97517
C         20.91644        12.00057         2.35074
C         22.08596         9.92336         1.69065
C         22.18610        12.76578         2.02957
C         20.84503        14.87999         1.74479
C         20.83460        16.28361         1.38896
C         22.12078        14.21848         1.78191
C         22.05936        16.97458         1.16904
C         20.79990        19.12356         0.90946
C         22.03808        18.35956         0.55840
C         23.33687         2.02072         0.98994
C         23.33300         3.46244         1.02355
C         24.56495         1.33912         0.92013
C         24.55766         4.17849         0.93452
C         23.32267         6.29711         1.05338
C         23.25079         7.79261         0.89086
C         24.54542         5.61522         0.92788
C         24.57794         8.45866         1.08619
C         23.30238        10.65430         1.43176
C         23.35494        12.04078         1.50868
C         24.51942         9.92575         1.01741
C         24.58227        12.79688         1.34129
C         23.31384        14.91701         1.55358
C         23.28262        16.32850         1.33740
C         24.58123        14.21469         1.43666
C         24.55346        17.11436         1.54321
C         23.31228        19.13416         0.74519
C         24.50835        18.52817         1.01216
C         25.79314         2.04148         0.82373
C         25.78611         3.47851         0.80672
C         27.02793         1.36144         0.73869
C         27.01013         4.19581         0.61882
C         25.79451         6.33121         0.81877
C         25.78670         7.77675         0.94868
C         27.00428         5.64626         0.63866
C         27.04693         8.47162         0.95481
C         25.81258        10.66794         0.96451
C         25.81143        12.11958         1.19707
C         27.06463         9.92321         1.35056
C         27.03650        12.81504         1.09131
C         25.79796        14.92950         1.22082
C         25.80775        16.36690         1.17658
C         27.01264        14.21709         1.03206
C         26.99238        17.08910         0.99233
C         25.75349        19.23148         0.92493
C         26.97506        18.54986         0.93800
C         28.23905         2.06676         0.56626
C         28.21114         3.49612         0.45393
C         29.48493         1.38270         0.53004
C         29.45143         4.22245         0.01365
C         28.25942         6.36188         0.57640
C         28.25408         7.79226         0.76928
C         29.47784         5.68541         0.39104
C         29.50773         8.51555         0.73814
C         28.30865        10.67630         0.96301
C         28.29386        12.07541         0.94944
C         29.51777         9.94540         0.80638
C         29.53520        12.79392         0.90296
C         28.23885        14.93599         0.54359
C         28.23915        16.40960         0.83239
C         29.53780        14.24510         0.88536
C         29.44079        17.11415         0.71528
C         28.19989        19.24225         0.74237
C         29.42241        18.56368         0.62524
C         30.71192         2.09038         0.46379
C         30.71513         3.48796         0.34822
C         31.96814         1.36183         0.42119
C         32.00504         4.20549         0.05297
C         30.72183         6.38204         0.44246
C         30.72898         7.81166         0.59890
C         31.97398         5.68944         0.37158
C         31.97207         8.53429         0.55913
C         30.75124        10.66090         0.74656
C         30.73880        12.07660         0.85436
C         31.98330         9.94348         0.62524
C         32.03949        12.75663         1.18976
C         30.71380        14.97809         0.89831
C         30.69333        16.40758         0.65375
C         32.02112        14.28072         1.01575
C         31.86849        17.12337         0.32746
C         30.62772        19.24879         0.32390
C         31.82721        18.55229         0.11686
C         33.17944         2.01574         0.41930
C         33.18447         3.49532         0.72956
C         34.41754         1.34547         0.18887
C         34.47519         4.19561         0.39835
C         33.18174         6.38509         0.44660
C         33.21291         7.81147         0.47881
C         34.49624         5.66844         0.69117
C         34.45351         8.50945         0.36696
C         33.22873        10.67889         0.47406
C         33.22777        12.05780         0.55779
C         34.47041         9.93657         0.27044
C         34.51079        12.82839         0.36539
C         33.22707        15.01453         0.51505
C         33.11405        16.44737         0.15082
C         34.27554        14.22495        -0.24763
C         34.26309        17.13172        -0.22082
C         33.01672        19.22520        -0.29917
C         34.21499        18.54535        -0.48309
C         35.60356         2.04663        -0.01449
C         35.61631         3.50859         0.06669
C         36.81532         1.36396        -0.33139
C         36.84692         4.22032        -0.24721
C         35.68212         6.39644         0.11989
C         35.67418         7.77596         0.14031
C         36.86559         5.64993        -0.26270
C         37.00410         8.49637         0.03151
C         35.66268        10.62855        -0.04108
C         35.53250        12.06323        -0.48024
C         36.89283         9.97312        -0.26701
C         36.83168        12.82776        -0.55277
C         35.60132        14.95065        -0.35031
C         35.56435        16.42452        -0.25378
C         36.78829        14.26251        -0.54201
C         36.77731        17.19348        -0.70929
C         35.40475        19.22824        -0.96902
C         36.59813        18.59936        -1.13323
C         37.98325         2.05161        -0.63557
C         37.99854         3.50057        -0.62411
C         39.19096         1.35118        -0.99095
C         39.18366         4.19499        -1.00862
C         38.01032         6.33090        -0.71496
C         37.91203         7.81342        -0.98486
C         39.18874         5.62338        -1.06342
C         39.24408         8.51836        -1.09059
C         38.04561        10.67074        -0.66834
C         38.04060        12.12093        -0.72917
C         39.26371         9.93522        -1.00382
C         39.23055        12.83036        -1.07913
C         38.10949        15.02664        -0.61869
C         37.93743        16.41493        -1.20801
C         39.18955        14.22408        -1.30318
C         38.84815        16.97944        -2.05094
C         37.83656        19.27917        -1.66188
C         38.56299        18.34949        -2.65741
C         40.32408         2.02532        -1.34353
C         40.35274         3.46530        -1.37908
C         41.49659         4.17109        -1.78397
C         40.38289         6.32135        -1.44430
C         40.41293         7.78853        -1.39058
C         41.50871         5.56968        -1.80779
C         41.61844         8.50145        -1.57521
C         40.47043        10.62444        -1.26816
C         40.55942        12.13100        -1.19499
C         41.63707         9.89021        -1.52347
C         41.37962        12.73568        -2.31254
C         40.17669        14.85612        -2.08825
C         40.05919        16.25423        -2.44238
C         41.21266        14.02900        -2.67429
C         41.06002        16.93500        -3.11673
C         39.78745        19.01250        -3.22594
C         40.93105        18.32282        -3.45675
O         17.34445        12.16041         3.45537
O         17.68372        14.75983         3.36063
O         25.14311        10.34538        -0.28985
O         36.53117        16.97892         0.73721
O          3.40681         9.25649        -4.20705
O         21.89696        12.29985         3.40931
O         14.97184         3.74355         2.14341
O         33.03353        14.84457         1.95861
O          7.82511         8.35037         0.57750
O          9.98750        18.41645        -0.54338
O         28.14399        14.84889        -0.93822
H         28.88745        15.37248        -1.30763
O         15.10956        15.04554         3.25245
H         15.84539        15.17532         3.89586
O         13.97611         3.53578        -1.35570
H         13.30464         3.04249        -1.87274
O         22.56474         8.12188         3.15238
H         21.91162         8.53202         3.75763
O         16.69317         9.60998         3.36010
H         16.75206        10.49465         3.80407
O         19.61366        13.06438         4.06718
H         20.55233        13.17139         4.34895
O         24.63710        17.26940         3.01144
H         23.85521        17.78921         3.29621
O         38.57829        15.19952         0.75479
H         37.90132        15.76486         1.20394
O         32.20247         4.10482        -1.38886
H         31.33384         4.33322        -1.80314
O         11.55653         7.77394        -2.16655
H         12.36829         7.23860        -2.30202
O          4.35367        17.80026         1.78210
H          3.51244        17.31939         1.62672
O         12.88453        17.68821        -1.16763
H         12.17559        18.27227        -1.51806
O         27.03695         9.93841         2.82293
H         27.86628         9.52400         3.14290
O         32.15946        12.51550         2.63494
H         32.70813        13.24381         3.00533
O         32.96235         3.62861         2.17531
H         33.51295         2.95157         2.62264
O         41.28802        12.42319         0.05226
H         41.14742        13.37303         0.25600
O         38.70483        19.59706        -0.56691
H         38.81696        18.79338        -0.01743
O         37.65194         8.36439         1.32502
H         37.04743         8.72214         2.00823
O         37.25864         7.95489        -2.28640
H         37.79601         7.46636        -2.94478
O         35.11776        13.02615         1.66291
H         34.54424        13.64921         2.16878
O         11.75536        15.14957        -1.91462
H         12.41727        15.88346        -1.93832
O         22.84033         8.07639        -0.48303
H         23.62370         7.97955        -1.06449
O         34.67273         5.76353         2.15827
H         33.96275         5.19391         2.54757
O         33.67432        14.14487        -1.56440
H         34.16009        13.45528        -2.08127
O          8.36457         2.45887         2.06296
H          7.58655         3.04277         2.19240
O         29.40840         4.22441        -1.49201
H         29.16677         3.31205        -1.76447
O         21.94987        18.12937        -0.90547
H         21.07191        17.72903        -1.08258
O         11.68351        10.63079        -2.23151
H         11.67031         9.67323        -2.48393
O         37.62114        18.14975        -3.75451
H         38.07937        17.63187        -4.44904
O         35.02988        11.95302        -1.86271
H         35.65289        11.37615        -2.35460
H          0.48580         1.60626        -1.67003
H          0.61483         3.97402        -2.34191
H          2.50444         0.41229        -0.82186
H          0.97881         5.53810        -3.42290
H          1.37623         7.73639        -4.52007
H          1.33786        10.76912        -4.48929
H          0.97757        12.99304        -3.42916
H          0.71157        14.67749        -2.46297
H          0.65272        17.03822        -1.77526
H          1.86536        19.11867        -1.08607
H          4.89799         0.42982        -0.26070
H          3.77502        20.15457         0.09276
H          7.24442         0.44939         0.36542
H          6.08257        19.85628         1.29980
H          9.75682         0.39269         0.55564
H          8.30326        19.57949         2.12698
H         12.20443         0.28843         0.56645
H         11.13074        19.96693         2.17699
H         14.69357         0.19928         0.59159
H         13.44018        20.21060         1.78690
H         17.21053         0.20941         0.64461
H         15.94429        20.31703         1.42427
H         19.63640         0.22288         0.88421
H         18.39419        20.26895         1.14111
H         22.10076         0.22580         0.96394
H         20.79141        20.21476         0.76635
H         24.57446         0.23901         0.91537
H         23.29793        20.19783         0.45770
H         27.04750         0.26326         0.79926
H         25.74067        20.31211         0.71502
H         29.49751         0.28615         0.60985
H         28.18114        20.33756         0.63885
H         31.93116         0.26959         0.28963
H         30.60840        20.34271         0.20843
H         34.41300         0.25016         0.07813
H         32.97419        20.30977        -0.47950
H         36.80904         0.26389        -0.36341
H         35.30562        20.28816        -1.25027
H         39.17928         0.25127        -0.98154
H         37.57372        20.23754        -2.17235
H         41.23558         1.47514        -1.61991
H         42.39897         3.61585        -2.07811
H         42.43321         6.07455        -2.11881
H         42.55950         7.96680        -1.75976
H         42.59104        10.41627        -1.66537
H         42.18562        12.14244        -2.76851
H         41.86328        14.45887        -3.44950
H         42.00342        16.43186        -3.36644
H         39.70762        20.07268        -3.50758
H         41.79479        18.82647        -3.91504
