         268
 CSIRO Nanostructure Databank - Neutral Graphene Oxide Data Set
C        -11.23028         0.64437        -0.46535
C        -10.00971         1.41531        -0.79209
C         -8.70994         0.64892        -0.71574
C         -7.53835         1.48469        -0.29303
C         -6.35183         0.77673         0.26573
C         -5.06218         1.54039         0.39625
C         -3.80385         0.73373         0.58568
C         -2.50438         1.39939         0.28596
C         -1.31789         0.73262         0.90981
C         -0.01385         1.43917         0.99483
C          1.26939         0.64365         0.87228
C          2.56791         1.37987         0.85998
C          3.66514         0.82897        -0.07241
C          5.03451         1.40385         0.23135
C          6.17501         0.74858        -0.50102
C          7.44243         1.49542        -0.75621
C          8.70443         0.71729        -1.02688
C          9.99715         1.34187        -0.60394
C         11.05320         0.36004        -0.24261
C         -9.96370         2.88861        -0.67044
C         -8.78711         3.63025        -0.74415
C         -7.44019         2.92368        -0.77545
C         -6.35901         3.76723        -0.04098
C         -5.02144         3.01234         0.12140
C         -3.78729         3.48315        -0.65880
C         -2.46389         2.81044        -0.19068
C         -1.30708         3.60508         0.36342
C          0.00842         2.87261         0.52831
C          1.29130         3.62716         0.65668
C          2.56100         2.89204         1.03269
C          3.84592         3.63365         0.79773
C          5.10887         2.85478         0.54443
C          6.33907         3.55150         0.04077
C          7.60388         2.70610         0.18843
C          8.87227         3.50880        -0.03356
C         10.02023         2.78978        -0.20192
C         -8.76267         5.04931        -0.77738
C         -7.53807         5.79317        -0.76939
C         -6.28297         4.95994        -0.99860
C         -4.97534         5.76005        -0.98337
C         -3.66276         4.99682        -0.86034
C         -2.38849         5.73842        -0.57114
C         -1.27788         5.08472         0.19727
C          0.00299         5.86585         0.43772
C          1.26281         5.12823         0.79462
C          2.59706         5.84224         0.74735
C          3.78891         5.05049         0.29777
C          5.03302         5.77381        -0.11959
C          6.35676         5.03138        -0.17481
C          7.66048         5.71264         0.03874
C          8.80883         4.96840         0.09645
C         -7.50240         7.14467        -0.49981
C         -6.25582         7.82829         0.01348
C         -4.98323         7.19480        -0.54381
C         -3.70363         7.86475        -0.10761
C         -2.40885         7.24509        -0.52881
C         -1.14076         8.02170        -0.36936
C          0.17802         7.24698        -0.23015
C          1.28031         8.03969         0.47657
C          2.60676         7.32389         0.59614
C          3.82917         8.02588         0.15796
C          5.05467         7.27622        -0.13451
C          6.39860         7.98955        -0.00437
C          7.68445         7.21666         0.30201
C         -6.17167         9.33511        -0.17711
C         -5.01496        10.01414        -0.04159
C         -3.70739         9.33541         0.17734
C         -2.41310        10.08094         0.12336
C         -1.20741         9.47700        -0.02033
C          0.09050        10.26496        -0.19382
C          1.31002         9.52994         0.37824
C          2.64492        10.17179         0.37591
C          3.84189         9.44300         0.25228
C          5.14195        10.09622         0.37942
C          6.31433         9.41205         0.39452
C        -11.20703        -0.68853        -0.22658
C         -9.99459        -1.50609        -0.26763
C         -8.71002        -0.81124        -0.38389
C         -7.53858        -1.48425        -0.16493
C         -6.27871        -0.71841         0.04321
C         -5.06960        -1.46500         0.50576
C         -3.84854        -0.71271         0.95592
C         -2.56722        -1.52365         1.21602
C         -1.34979        -0.74581         0.69671
C         -0.08935        -1.45399         0.33023
C          1.14973        -0.61647        -0.00156
C          2.43602        -1.47022        -0.04930
C          3.72377        -0.71094        -0.13172
C          5.01644        -1.43900         0.15418
C          6.35439        -0.71180        -0.13692
C          7.27590        -1.44829        -1.11902
C          8.59602        -0.77080        -1.35818
C          9.93454        -1.50586        -1.56857
C         10.97964        -0.93727        -0.60022
C        -10.01405        -2.85721        -0.05045
C         -8.82416        -3.71358        -0.43157
C         -7.44243        -2.99889        -0.25593
C         -6.43372        -3.65993         0.68499
C         -5.14370        -2.92680         0.84754
C         -3.85477        -3.63469         0.49971
C         -2.57604        -2.87704         0.52964
C         -1.24986        -3.60095         0.41799
C         -0.05348        -2.84039         0.97939
C          1.25253        -3.64262         0.90663
C          2.42873        -2.96944         0.25457
C          3.70617        -3.73192         0.11335
C          4.99512        -2.94124         0.17369
C          6.33982        -3.65037        -0.11379
C          6.96579        -2.90636        -1.31487
C          9.17145        -3.95629        -0.94199
C          9.93473        -3.04131        -1.52228
C         -8.79096        -5.14249         0.06845
C         -7.59411        -5.87118         0.13260
C         -6.30067        -5.07843         0.15997
C         -5.06977        -5.85618         0.65017
C         -3.77465        -5.12241         0.62646
C         -2.53040        -5.80701         0.09906
C         -1.21358        -5.06782         0.14511
C          0.05688        -5.85440         0.38096
C          1.25345        -5.15293         0.98806
C          2.56528        -5.93010         0.95230
C          3.80953        -5.16949         0.58072
C          4.96799        -5.88126        -0.05731
C          6.17715        -5.11962        -0.49988
C          7.51460        -5.89288        -0.94125
C          8.72275        -5.10131        -0.42197
C         -7.53579        -7.26336        -0.03526
C         -6.30883        -8.06141         0.16564
C         -5.04793        -7.36589         0.60048
C         -3.67060        -8.08178         0.58078
C         -2.53422        -7.28440        -0.10117
C         -1.20659        -8.06605        -0.34664
C          0.08544        -7.32220         0.09429
C          1.11557        -8.16966         0.86263
C          2.52002        -7.48620         1.11979
C          3.74180        -8.13790         0.39823
C          4.98114        -7.37421         0.01610
C          6.11858        -8.05892        -0.85011
C          7.34448        -7.29257        -0.42401
C         -6.16607        -9.42129        -0.40244
C         -4.97879       -10.07263        -0.43774
C         -3.72911        -9.48960         0.02775
C         -2.54466       -10.14886         0.09426
C         -1.29549        -9.38693         0.46511
C         -0.05881       -10.21785         0.31286
C          1.19221        -9.58957         0.32437
C          2.38837       -10.24037         0.02427
C          3.60328        -9.45520        -0.37954
C          4.92895       -10.18921        -0.32372
C          6.08925        -9.54108        -0.51220
O         -3.93082         0.27688         2.00271
O          6.43058         1.34519        -1.79579
O         -9.27810         0.93686        -2.00887
O         -4.40062        -5.46260         1.89588
O         -3.25569        -8.21688         1.94558
O         -1.10707        -1.20506        -0.67164
O          3.10067        -1.23162        -1.32904
O          3.51755        -5.40356         1.96050
O          2.83153         6.66937         1.91689
O          3.29660         3.45954         2.13921
O         -1.01959        -4.09447        -0.92644
O          5.81825         7.75890        -1.30824
O         -4.97595         6.84730        -1.95331
O          6.90296        -3.36577        -2.44696
O         -1.75763         7.82655        -1.70055
O          7.59006        -0.86354        -2.40783
O          0.57540        -6.41778        -0.90706
O         -6.40834         4.33724        -2.33145
O         -2.15165         1.72028        -1.09717
O          2.80899        -3.64386        -1.01076
O         -5.25802        -1.13531        -0.91624
O          2.16733         0.57611         2.00434
O          0.92587         8.82406         1.63524
O         -3.32544        -3.01219        -0.70229
O         -4.93903         2.55857         1.48080
O          5.03693        -2.16736         1.41346
O         -7.37981         1.28731         1.15928
O          5.32865         1.84224         1.57390
O          4.89985        -8.01010         1.30081
O         -2.86518        -6.42057        -1.20566
O          7.70353         2.11561         1.46398
O          1.29878        -4.35985         2.19648
O          5.12183        -5.37918        -1.43723
O          0.41560         5.71681         1.81665
O          0.50951        -8.33467         2.16087
O          0.84025         3.11972        -0.64678
O         -6.66599        -3.33817        -1.49695
O         -6.06735        -4.71286        -1.27863
O          9.59282         1.31090        -2.03997
O         -6.00074        -3.26613         1.99055
O         -6.92251         2.94934        -2.14035
O         -3.71441         8.32491         1.27638
O         -5.90572        -7.95494         1.60397
O         -1.75476         4.46342         1.44330
O         -2.66563         5.23199        -1.91097
O          6.29992         4.08290        -1.30089
O         -0.82529         1.20768         2.18782
O          4.08311         5.23347        -1.10793
O         -0.25946        -2.52397         2.36389
H          0.06900        -3.26899         2.91932
O         -6.80182         4.21113         1.22791
H         -6.51404         3.54202         1.89432
O          2.72770        -7.74562         2.50816
H          3.52616        -7.24742         2.79300
O         -6.28714         7.58160         1.44604
H         -5.44997         7.94499         1.82715
O         -2.56264        -1.76992         2.62152
H         -2.72838        -0.91561         3.08053
O          5.80581        -7.93299        -2.23277
H          6.25226        -7.11239        -2.58099
O         -4.07856         2.96458        -1.96709
H         -3.42566         3.33424        -2.60137
O          7.08737        -0.66894         1.12023
H          7.20464         0.28324         1.42035
O         -1.10370        -8.38031        -1.72459
H         -0.93456        -7.54277        -2.20986
O          7.15884        -3.55994         1.04972
H          6.89703        -2.74263         1.54640
O          0.28090        10.49982        -1.59399
H          0.20148         9.64903        -2.07449
O          7.52402        -5.93458        -2.36876
H          7.35503        -5.01868        -2.71190
O          0.68504         6.99771        -1.55701
H         -0.08713         6.94249        -2.17059
O          3.33523        -9.07443        -1.76260
H          4.17210        -8.72687        -2.16747
O          0.95435        -0.05121        -1.31022
H          0.57914        -0.73425        -1.90798
O         10.39139        -1.18116        -2.89550
H         10.22212        -0.21651        -3.02955
O         -1.37927        -8.76861         1.83488
H         -1.43107        -9.46463         2.53233
O          7.95683         7.44107         1.69173
H          8.71276         6.88008         1.96185
O          3.35536         1.33551        -1.37629
H          2.61847         0.79348        -1.75568
O         -9.05946        -3.91263        -1.86124
H         -8.17329        -3.92626        -2.30190
H         11.79066        -1.61482        -0.29167
H         11.88343         0.70443         0.39323
H         10.99038         3.30656        -0.29220
H          9.76886         5.49739         0.22845
H          8.51693         7.67365        -0.31212
H          7.24703         9.92801         0.66526
H          5.14051        11.17113         0.61434
H          2.69317        11.27052         0.42006
H         -0.00351        11.26530         0.29767
H         -2.45957        11.17406         0.25073
H         -5.00625        11.11067        -0.13889
H         -7.10644         9.89176        -0.34474
H         -8.45684         7.67537        -0.35126
H         -9.71466         5.59809        -0.70614
H        -10.92394         3.42242        -0.58900
H        -12.18152         1.19358        -0.39762
H        -12.14889        -1.21002         0.00082
H        -10.97580        -3.36951         0.10651
H         -9.73644        -5.70339        -0.00266
H         -8.46916        -7.80843        -0.24531
H         -7.06803        -9.90647        -0.80445
H         -4.93218       -11.08923        -0.85695
H         -2.44267       -11.19540        -0.22903
H         -0.16294       -11.25374        -0.04212
H          2.36431       -11.31773        -0.20437
H          4.92523       -11.27219        -0.12564
H          7.04341       -10.08800        -0.48488
H          7.69667        -7.49176         0.60317
H          9.14210        -5.43292         0.54654
H         10.73953        -3.44757        -2.16856
