         429
 CSIRO Nanostructure Databank - Neutral Graphene Oxide Data Set
C          1.68001         3.44432        -1.16928
C          0.44725         4.08430        -1.20459
C          1.51065         6.27903        -0.88389
C          0.35581         5.46884        -1.04365
C          1.39838         7.67366        -0.59166
C          0.15940         8.33530        -0.30828
C          1.30311        10.37608         0.61444
C          0.08968         9.61664         0.15317
C          1.20793        11.89291         0.52772
C          0.00846        12.56547         0.57007
C          1.09388        14.75677         0.68721
C         -0.04739        13.98723         0.66098
C          1.01693        16.24551         0.98271
C         -0.12154        16.95891         0.26891
C          0.97560        19.16834         0.48582
C         -0.15530        18.29228         0.09342
C          1.04237        20.61412         0.15374
C         -0.10538        21.29094        -0.33846
C          0.92514        23.46523         0.17622
C         -0.17822        22.65987        -0.33832
C          0.92602        24.99878        -0.05574
C         -0.13007        25.70317        -0.80859
C          1.18651        27.77645        -0.79198
C          0.01699        27.00241        -1.17768
C          1.26797        29.22272        -0.94332
C          0.22802        29.97661        -1.47328
C          1.39464        32.12927        -1.28173
C          0.27098        31.39142        -1.61043
C          1.49368        33.56974        -1.45211
C          0.59338        34.31884        -2.19440
C          1.79369        36.43707        -1.81935
C          0.70574        35.73183        -2.31773
C          1.91974        37.88228        -1.93489
C          4.12162         3.54663        -0.92392
C          2.87640         4.19737        -1.00378
C          4.01260         6.36241        -0.74972
C          2.80372         5.63348        -0.91365
C          3.98493         7.83098        -0.73984
C          2.59524         8.52083        -0.60537
C          3.75429        10.58479         0.12981
C          2.57119         9.85470        -0.02292
C          3.67004        11.99403         0.45815
C          2.44247        12.64862         0.56558
C          3.55852        14.85943         0.69985
C          2.38135        14.10463         0.65248
C          3.51688        16.29401         0.60313
C          2.31974        16.96377         0.69209
C          3.51323        19.20969         0.42689
C          2.27772        18.43314         0.73138
C          3.47137        20.65413         0.82036
C          2.21332        21.37841         0.47258
C          3.44673        23.57489         0.61870
C          2.20314        22.77630         0.45244
C          3.42984        24.98749         0.16579
C          2.24231        25.66638        -0.04684
C          3.40708        27.77338         0.44198
C          2.25822        27.09269        -0.24350
C          3.45414        29.26367         0.22826
C          2.47052        29.91302        -0.47304
C          3.75251        32.10493        -0.26353
C          2.58112        31.36380        -0.81337
C          3.67990        33.58475        -0.06838
C          2.56399        34.32158        -0.74135
C          4.02354        36.35329        -0.77134
C          2.83038        35.73133        -1.10453
C          4.32494        37.72564        -1.32716
C          3.07126        38.51261        -1.61333
C          6.56984         3.62873        -0.77449
C          5.33436         4.27025        -0.75278
C          6.44597         6.46545        -0.31685
C          5.25782         5.71312        -0.61214
C          6.37244         7.84347        -0.06500
C          5.15226         8.56500        -0.23239
C          6.17490        10.58753         0.77935
C          5.04166         9.92690         0.07814
C          6.08386        12.04795         1.11138
C          4.95516        12.78971         0.42898
C          6.13700        14.90473         0.88119
C          4.83531        14.15733         1.09812
C          6.10153        16.28181         0.38121
C          4.78499        16.99204         0.23969
C          6.08652        19.18845         0.45383
C          4.80271        18.49346         0.21456
C          6.08156        20.61353         0.77428
C          4.78246        21.37470         0.91914
C          5.98844        23.49682         0.07920
C          4.78844        22.87974         0.76891
C          5.90231        24.92401        -0.40068
C          4.68977        25.70361        -0.02058
C          5.94705        27.84287        -0.16124
C          4.70701        27.06943         0.04271
C          5.95319        29.29147         0.35819
C          4.64471        29.93538         0.89623
C          5.63098        32.21255         1.24303
C          4.68640        31.43165         0.65038
C          5.98328        33.56708         0.85524
C          4.94626        34.28818         0.23703
C          6.28957        36.31128         0.28590
C          5.08625        35.65936        -0.08102
C          6.38683        37.75568         0.11304
C          5.36926        38.45215        -0.53163
C          9.05031         3.64717        -0.38277
C          7.84694         4.41062        -0.86250
C          8.83185         6.39279         0.31556
C          7.72782         5.77782        -0.23156
C          8.67774         7.76894         0.92851
C          7.66315         8.59481         0.14655
C          8.62821        10.62277         1.20094
C          7.50241         9.96134         0.78212
C          8.61644        12.05781         1.61688
C          7.32106        12.82780         1.49273
C          8.59166        15.00522         0.99463
C          7.34657        14.28579         1.15147
C          8.57039        16.36276         0.54152
C          7.35468        17.05160         0.37601
C          8.52492        19.21903         0.09748
C          7.30414        18.49719         0.32235
C          8.55531        20.60793         0.03939
C          7.39300        21.39014         0.50694
C          8.44717        23.45741        -0.33840
C          7.30741        22.81296         0.14205
C          8.40507        24.83136        -0.78398
C          7.13279        25.68558        -0.94981
C          8.37408        27.94054        -0.46091
C          7.22786        27.14252        -0.42426
C          8.43294        29.25506         0.15185
C          7.28188        29.85882         0.70181
C          8.55822        31.92979         1.15291
C          7.45756        31.08771         1.37631
C          8.50514        33.38303         1.24581
C          7.28841        34.14437         1.03869
C          8.62263        36.24442         1.06212
C          7.39108        35.56606         0.80934
C          8.69404        37.68839         0.98354
C          7.55595        38.41869         0.57868
C         11.38590         3.57120         0.38438
C         10.14943         4.27980         0.14225
C         11.24309         6.38139         0.85901
C         10.09677         5.70654         0.45002
C         11.23399         7.82779         1.07197
C          9.97266         8.54631         1.03627
C         11.13062        10.70166         1.39561
C          9.90307         9.91029         1.21753
C         11.12042        12.15979         1.20780
C          9.90740        12.84975         1.56400
C         11.20722        15.14346         1.10325
C          9.87454        14.40069         1.35998
C         11.03337        16.42214         0.31846
C          9.81568        17.05275         0.23723
C         10.97011        19.15798        -0.52639
C          9.67582        18.40231        -0.44026
C         10.95497        20.58710        -0.63912
C          9.73444        21.32292        -0.37149
C         10.93400        23.43680        -0.74382
C          9.70836        22.72867        -0.47169
C         10.88864        24.80531        -1.03309
C          9.59285        25.34451        -1.26467
C         10.87923        27.91983        -0.59783
C          9.63578        27.49881        -1.01394
C         10.92321        29.20752         0.05976
C          9.69579        29.90036         0.32024
C         10.99016        31.94276         0.85782
C          9.75129        31.25756         0.75392
C         10.99370        33.33867         1.15718
C          9.75564        34.06142         1.25377
C         11.05065        36.16497         1.49033
C          9.80897        35.50024         1.30532
C         11.10722        37.61585         1.53503
C          9.91360        38.34177         1.25952
C         13.79024         3.51788         0.93375
C         12.53326         4.22903         0.76211
C         13.66646         6.34727         1.28618
C         12.50586         5.67408         0.97353
C         13.72131         7.83373         1.52215
C         12.41833         8.51372         1.21856
C         13.61240        10.70299         0.76812
C         12.44236         9.98470         1.32446
C         13.56571        12.04841         0.49576
C         12.24227        12.79791         0.44504
C         13.49013        14.92149         0.07429
C         12.35202        14.29485         0.54842
C         13.46887        16.35697        -0.20730
C         12.24775        17.05698        -0.15920
C         13.36721        19.06033        -1.10633
C         12.15928        18.42730        -0.58883
C         13.37103        20.59546        -1.24859
C         12.15256        21.29792        -0.85137
C         13.40438        23.41147        -0.96712
C         12.18871        22.72314        -0.81647
C         13.42897        24.88274        -1.09617
C         12.11445        25.63885        -1.22532
C         13.40545        27.71481        -0.34097
C         12.13233        27.14855        -0.91803
C         13.36772        29.03559         0.36724
C         12.13897        29.83996         0.35042
C         13.45600        31.89447         0.82169
C         12.20070        31.21284         0.71024
C         13.46275        33.30599         1.03278
C         12.23975        34.01618         1.22509
C         13.51589        36.08342         1.63258
C         12.27413        35.42619         1.48416
C         13.53186        37.47872         2.20006
C         12.31498        38.25889         1.79902
C         16.26723         3.47706         1.49858
C         14.94204         4.16299         1.25656
C         16.20459         6.39405         1.07328
C         14.93317         5.62471         1.42055
C         16.05860         7.80028         0.61627
C         14.88644         8.47868         0.79085
C         15.98101        10.57872        -0.06136
C         14.69100         9.83717         0.15526
C         15.95620        12.00775        -0.17399
C         14.74706        12.75023         0.01269
C         15.92680        14.83875        -0.53113
C         14.72384        14.15914        -0.18111
C         15.93163        16.27781        -0.76017
C         14.67861        17.02102        -0.65731
C         15.83271        19.11138        -1.48893
C         14.64389        18.35959        -1.02720
C         15.86739        20.58896        -1.31995
C         14.66301        21.29810        -1.18479
C         15.89001        23.41860        -1.02792
C         14.65563        22.71187        -1.03663
C         15.88804        24.84585        -0.74719
C         14.68389        25.54924        -0.69301
C         15.89855        27.65681        -0.01507
C         14.60631        26.85525         0.05730
C         15.91906        29.01522         0.15998
C         14.68301        29.73897         0.53976
C         15.89538        31.90048         0.48726
C         14.68333        31.20611         0.63143
C         15.91405        33.32870         0.70000
C         14.70263        34.00808         1.02465
C         15.98214        36.08585         1.40307
C         14.72904        35.40143         1.35259
C         15.99832        37.51341         1.70485
C         14.83667        38.18897         1.97431
C         18.56316         3.50226         0.44957
C         17.41712         4.21601         0.83454
C         18.41515         6.26593        -0.07483
C         17.36316         5.60545         0.60508
C         18.31631         7.67695        -0.39536
C         17.19051         8.41349        -0.07133
C         18.36704        10.53511        -0.64691
C         17.14467         9.85312        -0.30168
C         18.38253        11.95953        -0.66646
C         17.16658        12.69224        -0.47489
C         18.37910        14.76649        -0.96701
C         17.14775        14.10747        -0.65123
C         18.34200        16.18186        -1.32989
C         17.09599        16.92722        -1.14437
C         18.40199        19.12970        -1.36280
C         17.13947        18.36057        -1.51945
C         18.36487        20.55518        -1.29949
C         17.10975        21.27815        -1.27644
C         18.35608        23.42400        -1.05145
C         17.11272        22.70334        -1.12116
C         18.34942        24.84873        -0.81291
C         17.14295        25.51437        -0.56307
C         18.38637        27.71739        -0.44721
C         17.20258        26.90151         0.02594
C         18.36044        29.11938        -0.37289
C         17.13451        29.80143        -0.00244
C         18.23686        32.02575        -0.37676
C         17.09824        31.18620         0.14350
C         18.43280        33.33502         0.40811
C         17.13431        34.04661         0.70344
C         18.51637        36.03957         1.35903
C         17.17368        35.39493         1.09982
C         18.45466        37.54770         1.45361
C         17.27545        38.20219         1.66685
C         19.64625         4.15882        -0.13376
C         20.72417         6.23596        -0.97915
C         19.58592         5.53491        -0.40735
C         20.66151         7.53557        -1.32322
C         19.37560         8.31598        -1.27214
C         20.72671        10.49290        -1.20542
C         19.53292         9.79919        -0.97360
C         20.77519        11.88479        -1.13807
C         19.61137        12.64136        -0.90750
C         20.83257        14.83895        -0.95444
C         19.60535        14.08596        -0.98520
C         20.86355        16.20016        -1.01512
C         19.67693        16.96425        -1.39740
C         20.82307        19.18169        -1.13550
C         19.62830        18.44631        -1.26563
C         20.80359        20.56483        -1.12134
C         19.58905        21.28088        -1.20138
C         20.79441        23.47847        -1.10853
C         19.58142        22.73060        -1.13395
C         20.79578        24.85172        -0.99082
C         19.59312        25.58506        -0.82594
C         20.77152        27.79168        -0.98479
C         19.58937        27.01812        -0.74980
C         20.76410        29.15871        -0.90444
C         19.56563        29.89183        -0.60785
C         20.70787        32.12474        -0.71725
C         19.54651        31.29516        -0.53053
C         20.69023        33.48350        -0.61919
C         19.43212        34.27101        -0.32995
C         20.75863        36.31782         0.34525
C         19.64266        35.55467         0.45930
C         20.83288        37.64525         0.91999
C         19.71671        38.25639         1.40337
O          4.20739        23.53053         1.91509
O          4.05791        20.94206         2.11785
O          7.82633        12.41016         2.78886
O          6.44670        31.59300         2.21183
O         16.40145        18.64647        -2.76121
O          5.58794        23.81815        -1.32635
O          3.33261         8.44434        -1.88221
O         19.01644        16.48023        -2.60174
O          5.80787        29.01361        -1.05645
O         13.11025        27.85610        -1.75664
O          6.98412        21.00888         1.86059
O          1.49678        18.94046         1.86195
O          3.77888        31.65711        -1.65733
O         14.00762        29.06600         1.69136
O          9.94214        13.80528         2.69032
O          5.37860        16.38269        -0.95570
O         11.93578        10.43611         2.63662
O         13.18583        19.72562        -2.40716
O          0.50507        24.43874         1.22263
O          4.01010        19.02680        -0.93660
O         15.83942         6.13625         2.47479
O          2.53689        34.04791         0.72342
O          9.56691        26.52528        -2.00218
O          5.69742        11.08464         2.10585
O         12.87634        25.31599        -2.42087
O         19.02758        32.96050         1.67179
H         19.02858        33.76266         2.25392
O         16.23517         2.11353         1.08402
H         16.12110         2.08635         0.11230
O         13.95388         8.05261         2.95147
H         14.73014         7.49097         3.19579
O          4.56676        29.69951         2.32372
H          5.23564        30.28940         2.75119
O         17.46408        26.66753         1.46363
H         17.50107        27.54576         1.89971
O          8.23326         8.80659        -1.18067
H          7.54680         9.21945        -1.74588
O          6.89429        25.83968        -2.36557
H          6.53005        24.98460        -2.68769
O          3.19208        27.48778         1.85717
H          3.66973        28.17232         2.38470
O         13.44441        37.30662         3.68199
H         14.21387        36.75963         3.95039
O          5.35600        12.96020        -0.95194
H          4.76960        13.62814        -1.36753
O         14.38353        26.44627         1.44085
H         14.38945        27.27425         1.98311
O         18.84345         8.26423        -2.64458
H         17.98627         8.74174        -2.64468
O          8.15590         7.59437         2.26991
H          8.86648         7.22097         2.83147
O          0.75804        16.35832         2.41407
H          0.83639        17.31920         2.63491
O         11.68704        15.59915         2.40366
H         11.36981        14.93723         3.06495
O          4.70758        13.89033         2.52083
H          4.54737        14.73497         2.99011
O         17.79425        32.36573        -1.74289
H         17.73960        31.52972        -2.25301
O         11.83031        12.59339        -0.99413
H         12.48297        13.07573        -1.54836
O         14.15692         9.52698        -1.19352
H         13.95450        10.38034        -1.63407
O          4.94745        37.49637        -2.65691
H          4.28519        37.02259        -3.20468
O          1.43226        10.07481         2.05405
H          2.20971        10.57122         2.39102
O         18.88065        34.74179        -1.58483
H         18.49384        33.96160        -2.05189
O          8.07655         4.64282        -2.31245
H          8.84751         5.24557        -2.38595
O          9.29823        18.11195        -1.83667
H         10.10265        17.80581        -2.30728
O         18.89657        35.56445         2.71558
H         19.72454        36.03371         2.95781
H          1.74290         2.35073        -1.26091
H         -0.47100         3.49542        -1.33801
H         -0.63895         5.93398        -1.05169
H         -0.78219         7.79497        -0.48598
H         -0.90193        10.05162         0.34197
H         -0.94218        12.01488         0.56699
H         -1.03539        14.45912         0.75597
H         -0.98855        16.36285        -0.05443
H         -1.02544        18.74799        -0.40207
H         -0.98023        20.71135        -0.66366
H         -1.11130        23.15780        -0.63318
H         -1.07988        25.18618        -1.00611
H         -0.80607        27.49949        -1.71033
H         -0.69719        29.47335        -1.78628
H         -0.62936        31.89807        -1.98644
H         -0.24258        33.82104        -2.70644
H         -0.07810        36.27337        -2.86697
H          1.03730        38.45538        -2.25803
H          4.16272         2.45175        -1.02511
H          3.14909        39.60709        -1.69718
H          6.61117         2.53532        -0.89507
H          5.45656        39.54292        -0.65398
H          9.10654         2.57446        -0.62453
H          7.62209        39.51350         0.49143
H         11.41104         2.48628         0.20236
H          9.95027        39.44109         1.23218
H         13.79520         2.42477         0.80430
H         12.35468        39.35829         1.82208
H         16.44938         3.47320         2.60913
H         14.87731        39.26800         2.19078
H         18.60339         2.41928         0.63268
H         17.27780        39.29346         1.81610
H         20.55350         3.59550        -0.39508
H         21.66128         5.67278        -1.10590
H         21.54186         8.01453        -1.77458
H         21.64679         9.94830        -1.45620
H         21.73066        12.38975        -1.33362
H         21.76592        14.30273        -0.73238
H         21.79636        16.72814        -0.77381
H         21.78847        18.66223        -1.07865
H         21.75885        21.09743        -1.03601
H         21.75982        22.96567        -1.20620
H         21.76128        25.37474        -0.99691
H         21.71337        27.28571        -1.23581
H         21.69934        29.70405        -1.08855
H         21.66961        31.63800        -0.93971
H         21.62590        34.03273        -0.80395
H         21.61572        35.97647        -0.25298
H         21.78299        38.19361         0.85440
H         19.74202        39.31297         1.70891
