         618
 CSIRO Nanostructure Databank - Neutral Graphene Oxide Data Set
C         23.59202        70.01954         3.09411
C         23.63776        71.40271         3.18293
C         22.46569        72.16936         3.58547
C         23.66636        74.33908         3.23980
C         22.48276        73.51424         3.65265
C         25.81694        65.70108         2.17688
C         25.85633        67.10715         2.29017
C         24.70200        67.85893         2.63626
C         25.99245        69.94730         2.52618
C         24.75011        69.25563         2.74822
C         26.04554        71.36393         2.62725
C         24.86434        72.10584         2.92829
C         26.12171        74.18890         2.78319
C         24.91957        73.52905         2.99515
C         28.01105        61.28932         1.42955
C         28.07783        62.80225         1.37949
C         26.93506        63.53935         1.71031
C         28.19602        65.65142         1.57222
C         26.96731        64.96091         1.82060
C         28.26094        67.06811         1.69863
C         27.09588        67.79920         2.05763
C         28.41101        69.90149         2.00481
C         27.16566        69.21511         2.19131
C         28.46341        71.30367         2.15862
C         27.29248        72.03892         2.43784
C         28.51565        74.16592         2.19212
C         27.32648        73.48330         2.50194
C         30.42443        57.02027         0.69658
C         30.39917        58.42344         0.58453
C         29.23485        59.17567         0.92117
C         30.46651        61.25074         0.65395
C         29.25739        60.56139         0.96129
C         30.51559        62.72449         0.79888
C         29.27261        63.47354         1.06623
C         30.51238        65.58373         0.75294
C         29.34076        64.90388         1.12026
C         30.68499        66.98315         1.12970
C         29.49636        67.76751         1.49504
C         30.81503        69.86374         1.28061
C         29.59041        69.15548         1.63731
C         30.88647        71.28044         1.43798
C         29.80435        71.99708         2.21021
C         30.85430        74.14544         1.47961
C         29.71887        73.47627         1.89898
C         33.01682        52.75746         0.99361
C         33.05063        54.26773         1.02584
C         31.71740        54.93329         0.85695
C         32.80244        57.00741         0.04258
C         31.63857        56.29391         0.54310
C         32.73874        58.37195        -0.21504
C         31.58426        59.12851         0.18080
C         32.91918        61.28771         0.02048
C         31.60808        60.54576         0.23884
C         32.66521        62.67307        -0.61433
C         31.68204        63.46305         0.22570
C         32.85473        65.61254        -0.29728
C         31.51231        64.91975        -0.14860
C         32.96394        67.00170        -0.11813
C         31.93513        67.71312         0.68027
C         33.04095        69.88805         0.20708
C         31.90208        69.18505         0.68906
C         33.11301        71.29848         0.39679
C         32.01578        71.98171         1.01968
C         33.20952        74.12405         0.82299
C         32.06150        73.44402         1.12651
C         35.46281        48.45618         0.84411
C         35.37270        49.85989         0.59163
C         34.17756        50.57353         0.75535
C         35.18998        52.66681        -0.14916
C         34.07596        51.99717         0.56238
C         35.22676        54.14172        -0.21531
C         34.11370        54.89430         0.15205
C         35.14057        56.91866        -0.79018
C         34.03822        56.27803        -0.20180
C         35.04533        58.28998        -1.45018
C         33.82563        59.06550        -0.95778
C         35.15538        61.27477        -1.15492
C         33.88951        60.54928        -0.87835
C         35.14490        62.68365        -1.18868
C         33.94934        63.44099        -0.88503
C         35.11222        65.59984        -1.32045
C         33.94531        64.84251        -0.81874
C         35.22197        67.05400        -1.08798
C         34.10483        67.74874        -0.54305
C         35.21836        69.93413        -0.93948
C         34.13936        69.19108        -0.40604
C         35.27835        71.34603        -0.74259
C         34.27756        72.00666        -0.01283
C         35.37079        74.27824        -0.42652
C         34.49414        73.42083         0.49780
C         38.04917        44.28684         1.04873
C         37.96777        45.65832         0.77600
C         36.75104        46.37382         0.96275
C         37.98535        48.53493         0.71784
C         36.68081        47.76466         0.78840
C         37.82011        49.90659         0.13744
C         36.58627        50.53015         0.15304
C         37.72651        52.66514        -0.51904
C         36.48261        51.90309        -0.35264
C         37.62573        54.06841        -0.83015
C         36.38354        54.77856        -0.74222
C         37.49263        56.84572        -1.49920
C         36.34197        56.18833        -0.97526
C         37.60126        58.33303        -1.33261
C         36.34194        59.10586        -1.35109
C         37.63212        61.24106        -1.33649
C         36.36697        60.50448        -1.29296
C         37.59820        62.69471        -1.39640
C         36.39287        63.38051        -1.40869
C         37.64956        65.59840        -1.67130
C         36.38559        64.83951        -1.64562
C         37.62153        67.04442        -1.76334
C         36.39377        67.73101        -1.45777
C         37.59192        69.93378        -2.01057
C         36.32706        69.20125        -1.60676
C         37.62098        71.43068        -1.85995
C         36.41909        72.14159        -1.27763
C         37.81680        74.15643        -0.97838
C         36.61739        73.53740        -0.82273
C         40.60824        40.01335         1.09316
C         40.70293        41.50118         1.30460
C         39.37598        42.22658         1.27380
C         40.32590        44.12236        -0.02598
C         39.24134        43.52098         0.83822
C         40.27833        45.63685        -0.13655
C         39.12068        46.37157         0.23613
C         40.21449        48.46547        -0.51488
C         39.11763        47.77103         0.06134
C         40.21911        49.88216        -0.55490
C         39.00732        50.59045        -0.29443
C         40.25157        52.74899        -0.42588
C         38.94534        52.00194        -0.50458
C         40.12465        54.22880        -0.86850
C         38.77533        54.73687        -1.28348
C         40.50565        57.17766        -1.85234
C         38.58400        56.03641        -1.80752
C         40.30419        58.50788        -1.48125
C         38.93255        59.10954        -1.33029
C         40.11110        61.34401        -1.33665
C         38.84865        60.57863        -1.40533
C         40.02731        62.79706        -1.14208
C         38.84153        63.45272        -1.36997
C         40.10538        65.58615        -1.67376
C         38.85143        64.89883        -1.54800
C         40.09197        66.95944        -2.29316
C         38.82733        67.75118        -1.99055
C         40.07392        69.89077        -2.21025
C         38.87964        69.18593        -2.04346
C         40.10266        71.37374        -2.27488
C         38.92048        72.11958        -1.82129
C         40.26288        74.14595        -1.40569
C         39.00728        73.46401        -1.44865
C         42.99890        35.81892         0.97052
C         42.87896        37.13186         0.48637
C         41.70294        37.86262         0.69452
C         42.76188        39.97707        -0.12660
C         41.61323        39.28265         0.50696
C         42.83658        41.45654        -0.02414
C         41.77670        42.15310         0.46576
C         42.71960        44.19087        -0.63646
C         41.73265        43.65606         0.38097
C         42.36051        45.36470        -1.26297
C         41.33216        46.24831        -0.79776
C         42.66669        48.47008        -1.25361
C         41.31481        47.70548        -1.24625
C         42.65295        49.85255        -1.20721
C         41.42724        50.61240        -0.96734
C         42.64999        52.78210        -1.44911
C         41.42129        51.99133        -1.02986
C         42.67239        54.19840        -0.94935
C         41.41643        54.97455        -1.02702
C         42.64924        57.07892        -0.77472
C         41.58270        56.41297        -1.39265
C         42.64064        58.49179        -0.69733
C         41.43273        59.17833        -0.96442
C         42.52419        61.38731        -0.34039
C         41.39790        60.65094        -0.98500
C         42.53636        62.87815        -0.48902
C         41.25572        63.56469        -0.86322
C         42.56245        65.62897        -1.27006
C         41.30686        64.95432        -1.35061
C         42.50049        67.09463        -1.39234
C         41.33319        67.73286        -1.96241
C         42.68408        69.89695        -2.33334
C         41.35613        69.15385        -2.31353
C         42.70458        71.36754        -2.15699
C         41.44287        72.12315        -2.21536
C         42.73103        74.13696        -1.51946
C         41.47238        73.50955        -1.69771
C         45.58841        33.17712         1.58018
C         44.34480        33.81583         1.48172
C         45.44210        35.80998         0.55987
C         44.24546        35.13009         0.97761
C         45.37934        37.12751         0.02293
C         44.01962        37.68059        -0.35974
C         45.30318        39.95752        -0.28038
C         43.99533        39.20934        -0.46441
C         45.22911        41.40381        -0.72094
C         44.02574        42.12237        -0.57211
C         45.17990        44.21803        -1.19610
C         43.97108        43.51231        -0.87754
C         45.25403        45.65250        -1.33234
C         44.12897        46.45187        -1.68377
C         45.19036        48.51385        -1.07052
C         43.96600        47.80256        -1.35990
C         45.18363        49.90574        -1.04494
C         43.94141        50.61174        -1.51683
C         45.10913        52.76392        -0.85257
C         43.93298        52.06992        -1.14108
C         45.11449        54.18883        -0.60489
C         43.85152        54.85642        -0.63399
C         45.05582        57.04866         0.02847
C         43.78115        56.29166        -0.26090
C         45.02989        58.52525        -0.07785
C         43.85994        59.19018        -0.31866
C         45.07794        61.42054        -0.23544
C         43.80891        60.66193        -0.12841
C         45.02404        62.82120        -0.59197
C         43.83516        63.54506        -0.73691
C         45.02944        65.70746        -1.02252
C         43.79309        64.96567        -1.01473
C         45.07171        67.08941        -1.18671
C         43.83562        67.86487        -1.34224
C         45.15605        69.82924        -2.01858
C         43.92464        69.19454        -1.93088
C         45.15804        71.29488        -2.28109
C         43.89551        72.02569        -1.99744
C         45.20400        74.10498        -1.61701
C         43.95123        73.45681        -1.73866
C         46.75494        33.83217         1.20939
C         47.88594        35.85865         0.34251
C         46.70912        35.16378         0.70359
C         47.82949        37.18269        -0.13122
C         46.54767        37.80560        -0.31199
C         47.75212        39.98317        -0.79414
C         46.46876        39.19043        -0.92034
C         47.70689        41.37306        -0.93192
C         46.43473        42.07898        -1.01129
C         47.65462        44.21539        -1.20172
C         46.41746        43.49984        -1.15456
C         47.67416        45.61105        -0.87553
C         46.45708        46.33922        -0.99843
C         47.63007        48.46353        -0.68622
C         46.43467        47.77627        -0.90464
C         47.71523        49.94767        -0.98160
C         46.38845        50.66401        -0.87739
C         47.67712        52.81420        -0.83534
C         46.36942        52.04515        -0.80049
C         47.59209        54.25025        -0.36378
C         46.33929        54.92090        -0.34152
C         47.53677        57.09925        -0.05808
C         46.33098        56.32656        -0.08975
C         47.52118        58.50243        -0.00609
C         46.27300        59.27779         0.34211
C         47.54260        61.42501        -0.17618
C         46.27684        60.72849        -0.12624
C         47.56049        62.83511        -0.36797
C         46.32118        63.48553        -0.81977
C         47.54559        65.73213        -0.65099
C         46.32076        64.99259        -1.01416
C         47.47881        67.14535        -0.66339
C         46.31347        67.80987        -1.14289
C         47.53983        69.96455        -1.38122
C         46.35263        69.18020        -1.55916
C         47.73136        71.20975        -2.25862
C         46.44976        72.04710        -2.29023
C         47.67443        74.06550        -1.55627
C         46.45021        73.45203        -1.80920
C         49.02640        37.91347        -0.39978
C         50.21530        40.05506        -0.65592
C         49.01139        39.29963        -0.66620
C         50.20100        41.46175        -0.73467
C         48.93594        42.11231        -1.04340
C         50.06737        44.21337         0.61376
C         48.86376        43.46822        -1.40126
C         50.00466        45.65465         0.15604
C         48.84784        46.29978        -0.38980
C         49.99970        48.44083        -0.05159
C         48.81578        47.73147        -0.36696
C         49.91549        49.87664         0.39707
C         48.81188        50.68030        -0.24398
C         49.90912        52.78811         0.45191
C         48.78005        52.03181        -0.14323
C         49.99500        54.25582         0.27325
C         48.79244        54.96082        -0.05350
C         49.99559        57.09536         0.32133
C         48.79855        56.38879        -0.00231
C         50.00112        58.54371         0.29892
C         48.80130        59.23313        -0.30323
C         49.98419        61.42256         0.05320
C         48.75917        60.71820        -0.03793
C         50.00363        62.86678        -0.05572
C         48.75981        63.58335        -0.26772
C         49.97600        65.76792        -0.09797
C         48.73449        65.01492        -0.35850
C         50.00397        67.26587        -0.30889
C         48.66144        67.97439        -0.33158
C         50.38565        69.82698        -2.14960
C         48.53941        69.43335        -0.57607
C         50.23652        71.32412        -1.97316
C         48.99087        71.98253        -1.93286
C         50.15151        74.08603        -1.49820
C         48.93762        73.37634        -1.66584
C         51.35562        42.19304        -0.33961
C         52.49050        44.26380         0.42255
C         51.35412        43.51929         0.19649
C         52.29008        45.60511         1.10520
C         51.20125        46.36184         0.32933
C         52.42112        48.55800        -0.22795
C         51.21198        47.75607         0.09659
C         52.43699        49.92779         0.35688
C         51.24898        50.59131         0.41823
C         52.45140        52.81079         0.59199
C         51.18785        52.03626         0.72085
C         52.42509        54.25074         0.89844
C         51.16558        54.95257         0.65503
C         52.23710        57.09150         1.45244
C         51.16193        56.37527         0.68020
C         52.34301        58.59275         1.12513
C         51.13682        59.29051         0.60667
C         52.45372        61.40238         0.27596
C         51.19024        60.70546         0.32343
C         52.47883        62.83389        -0.01171
C         51.23553        63.53775        -0.07542
C         52.54796        65.70598        -0.29629
C         51.28571        65.00923        -0.01468
C         52.58707        67.22916        -0.19694
C         51.29789        67.91833        -0.67986
C         52.61511        70.00682        -0.93191
C         51.39156        69.16093        -1.24184
C         52.72507        71.27421        -1.80159
C         51.43041        72.04817        -1.75637
C         52.66234        74.26320        -1.52690
C         51.39081        73.44258        -1.56967
C         53.58284        46.31182         1.51816
C         55.08722        48.35880         0.83793
C         54.19193        47.41706         1.12497
C         54.96783        49.81862         1.14382
C         53.68286        50.57208         0.85566
C         54.94389        52.78200         1.08870
C         53.74765        52.05058         0.65994
C         54.87004        54.14855         1.27812
C         53.61749        54.88397         1.20512
C         54.80016        57.00441         0.77430
C         53.65850        56.36656         1.58697
C         54.86541        58.47826         0.54160
C         53.65379        59.29228         0.87264
C         54.94221        61.36317         0.38766
C         53.64190        60.69059         0.41091
C         54.95570        62.83450         0.04929
C         53.68210        63.53438        -0.20163
C         55.00874        65.65587        -0.59131
C         53.71754        64.96930        -0.42694
C         55.06863        67.01723        -0.75709
C         53.77021        67.73648        -1.03778
C         55.09206        69.87363        -1.03448
C         53.89145        69.22372        -0.98711
C         55.11744        71.33913        -1.08504
C         53.94415        72.05277        -1.35102
C         55.06357        74.14212        -0.83291
C         53.91778        73.46894        -1.23077
C         56.19783        50.64071         1.13055
C         57.41799        52.77486         1.20266
C         56.18829        52.02328         1.18218
C         57.42204        54.15576         1.26040
C         56.14563        54.91802         1.57368
C         57.39455        56.96475         0.60974
C         56.09832        56.23411         0.79538
C         57.39443        58.43489         0.44621
C         56.17105        59.17284         0.36359
C         57.41513        61.28207         0.05654
C         56.19160        60.57562         0.24341
C         57.48070        62.67987        -0.14538
C         56.23277        63.40595        -0.45800
C         57.55151        65.58866        -0.49198
C         56.27059        64.88753        -0.68662
C         57.58298        67.01135        -0.62350
C         56.33322        67.73540        -0.83780
C         57.59033        69.88002        -1.03366
C         56.32982        69.12302        -0.95331
C         57.57090        71.33298        -0.72713
C         56.33820        72.02895        -0.80662
C         57.47137        74.12465        -0.25136
C         56.29595        73.45334        -0.62874
C         58.63526        54.89884         1.20382
C         59.84703        57.03660         1.02544
C         58.65789        56.28821         1.00315
C         59.86583        58.42229         0.73022
C         58.62914        59.09174         0.41124
C         59.98173        61.28177         0.17646
C         58.65631        60.50466         0.02773
C         59.90156        62.73894         0.29348
C         58.69790        63.41497        -0.04496
C         59.90265        65.58051         0.21899
C         58.70755        64.86386        -0.13691
C         59.98126        67.01264        -0.01954
C         58.81384        67.68947        -0.52004
C         60.13466        69.90535        -0.56273
C         58.88714        69.12144        -0.86531
C         60.01033        71.32875        -0.18257
C         58.75057        72.00696        -0.33858
C         59.82822        74.08965         0.42441
C         58.67926        73.42191        -0.05825
C         61.06459        59.17174         0.90305
C         62.23709        61.33348         1.18580
C         61.12558        60.56263         0.76258
C         62.22626        62.73290         1.15057
C         61.04067        63.44842         0.73076
C         62.16468        65.59401         1.26499
C         61.00489        64.87255         0.74080
C         62.27572        67.07549         0.93488
C         61.19170        67.70201         0.17977
C         62.47217        69.89407         0.52676
C         61.37396        69.13848        -0.13680
C         62.35243        71.28565         0.65168
C         61.12354        71.99106         0.35961
C         62.09469        74.09161         1.31246
C         61.02545        73.40500         0.68083
C         63.39200        63.47840         1.55095
C         64.56247        65.62798         1.96142
C         63.39515        64.84981         1.58877
C         64.67607        66.95171         1.68280
C         63.66316        67.67468         0.81913
C         64.64865        69.82913         1.69556
C         63.61024        69.17928         1.03870
C         64.69611        71.29758         1.72272
C         63.49760        72.06633         1.15036
C         64.30174        74.07549         2.39137
C         63.30285        73.45109         1.63161
C         65.96480        67.68438         1.94108
C         66.62901        69.78653         3.13867
C         65.74050        69.12471         2.32933
C         66.51193        71.20306         3.41486
C         65.54774        71.96309         2.71505
C         66.29228        73.97953         3.86939
C         65.40114        73.35671         2.95732
C         67.37383        71.85475         4.32360
C         67.26372        73.23321         4.53119
O         40.62832        55.04794         0.26298
O         59.53068        60.77858        -1.11476
O         35.45064        65.23684        -2.70625
O         41.15687        61.07764        -2.38126
O         58.38712        69.47182        -2.20295
O         42.10849        69.41299        -3.59770
O         36.61880        69.54230        -3.01906
O         41.70901        63.49919         0.55524
O         56.74254        56.21055        -0.49697
O         45.72066        71.81433        -3.54756
O         43.10974        39.62011        -1.53554
O         44.17493        56.56277         1.11729
O         49.38589        67.80591         0.94235
O         61.18538        69.57271        -1.52494
O         43.09153        45.80670        -2.37850
O         64.72987        71.89875         0.38312
O         53.15564        48.21706        -1.14899
O         50.30851        52.38724         1.83193
O         39.56242        56.55143        -2.65574
O         35.50290        52.06226        -1.44765
O         55.07586        62.40085         1.44576
O         36.61784        72.05990        -2.73347
O         54.02501        50.16501         2.22060
O         54.01130        56.47101         2.94724
O         61.87158        66.64084         2.26751
O         31.84486        67.16753         2.05219
O         33.25842        59.92110        -2.05256
O         49.89819        69.16900        -3.05537
O         42.96063        67.81000        -0.15588
O         46.47025        64.08530        -2.16162
O         54.49029        57.52462        -0.54345
O         56.20239        63.92461        -1.82292
O         31.67549        63.19886         1.64911
O         53.19175        52.46917        -0.63360
O         40.72403        71.94651        -3.47932
O         38.34156        58.60787        -0.06531
O         42.90690        60.98096         1.00630
O         50.59963        65.50128         1.21788
O         49.20881        43.69887         1.30627
O         53.06704        59.24938         2.21523
O         41.15462        41.66801         2.70353
H         41.31906        42.63420         2.81889
O         66.69210        67.68852         0.68677
H         67.39451        68.36973         0.74225
O         33.59835        61.43109         1.28102
H         33.03447        62.00962         1.85358
O         44.05154        50.59253        -2.99646
H         43.35902        51.22141        -3.32485
O         40.90035        47.66537        -2.65007
H         41.56811        47.11725        -3.12233
O         30.90495        64.95834        -1.48194
H         31.30350        64.22764        -2.01518
O         56.25390        55.20218         2.98219
H         55.40108        55.66928         3.25142
O         46.24824        59.33950         1.80872
H         45.33889        59.58313         2.08669
O         45.51961        39.97352         1.15765
H         46.37074        40.42962         1.33264
O         33.46272        54.59172         2.42095
H         33.48684        55.56987         2.49824
O         48.08979        50.04194        -2.41181
H         47.33353        49.69368        -2.93317
O         49.33616        70.21571         0.17899
H         49.81942        69.61611         0.80446
O         52.53005        75.35039        -0.60286
H         52.42500        74.97623         0.29571
O         40.11175        43.60058        -1.36661
H         39.20981        43.85671        -1.65131
O         47.94422        70.68476        -3.58413
H         47.09116        70.78184        -4.07497
O         31.99356        62.46415        -1.88936
H         32.45411        61.74031        -2.37355
O         34.64456        74.60346        -1.62231
H         34.83788        73.92543        -2.30334
O         42.01964        44.21153         1.69918
H         42.95925        44.02140         1.90584
O         42.54556        52.87470        -2.94784
H         43.27416        53.46103        -3.24838
O         43.77883        37.15431        -1.69542
H         43.27144        37.84900        -2.17919
O         52.78415        67.58262         1.19492
H         52.11605        67.07427         1.71253
O         49.56486        49.75780         1.81888
H         49.65228        50.66578         2.20733
O         48.97185        59.12395        -1.77793
H         49.82730        59.54492        -2.01009
O         49.94137        44.07566        -1.96296
H         49.71869        44.99463        -2.21629
O         64.08322        67.45785        -0.55490
H         65.04757        67.65739        -0.59400
O         30.22506        71.92085         3.62061
H         29.53634        72.37134         4.15419
O         52.97207        70.86359        -3.17005
H         52.14126        70.50128        -3.54689
O         34.85174        58.00466        -2.86461
H         34.28361        58.72802        -3.21931
O         23.91512        75.37885         4.20008
H         24.12617        74.95649         5.05755
O         51.63541        45.28691         2.36886
H         51.35098        46.12502         2.79103
O         52.42995        70.42858         0.45097
H         52.59295        69.63340         1.01479
O         38.39781        48.73717         2.11404
H         38.49450        47.85016         2.52161
O         53.41080        67.40097        -2.41612
H         54.13291        67.71161        -3.00278
O         51.65785        57.02280         2.77262
H         52.45130        56.87435         3.37527
O         26.86678        60.82180         0.69828
H         26.98979        61.05285        -0.24511
O         48.06173        52.89181        -2.24764
H         48.16750        51.95846        -2.56423
O         40.10765        66.73993        -3.75395
H         40.21455        67.61707        -4.18314
O         40.56047        52.71147         1.00130
H         40.81425        53.63344         1.26364
O         46.16383        39.06385        -2.33432
H         46.80036        38.43198        -2.72791
O         35.25660        73.28670         1.74102
H         34.68639        72.82684         2.39309
H         23.39743        74.86785         2.28024
H         26.14718        75.28753         2.82960
H         28.49864        75.26385         2.11375
H         30.83919        75.24214         1.38419
H         33.22626        75.22235         0.89053
H         35.62228        75.23584         0.09577
H         37.92017        75.21512        -0.69546
H         40.27773        75.18945        -1.05750
H         42.75488        75.19522        -1.21821
H         45.21467        75.16863        -1.33341
H         47.68915        75.11893        -1.23811
H         50.12286        75.17219        -1.32678
H         52.78856        74.73308        -2.54252
H         55.02839        75.23252        -0.69335
H         57.44930        75.21166        -0.08469
H         59.76613        75.16458         0.64983
H         61.94654        75.14121         1.60753
H         64.16462        75.12905         2.67864
H         66.19826        75.05775         4.06194
H         22.64730        69.49193         3.29342
H         21.55994        71.61007         3.86546
H         21.58897        74.06260         3.98590
H         24.87141        65.17109         2.36360
H         23.75243        67.33279         2.81399
H         27.82958        60.99530         2.50048
H         25.99757        63.00655         1.92549
H         29.51638        56.48654         1.01340
H         28.31476        58.64215         1.20068
H         32.17705        52.26930         1.51283
H         30.81751        54.41525         1.22239
H         34.53779        47.89249         1.04158
H         33.29957        50.04197         1.15338
H         37.18235        43.78883         1.51014
H         35.83581        45.81017         1.20044
H         39.79530        39.48285         1.61410
H         38.55554        41.76788         1.84930
H         42.12722        35.33739         1.44181
H         40.87131        37.36833         1.22311
H         45.63932        32.15076         1.96997
H         43.43295        33.29215         1.80293
H         47.72786        33.32936         1.30667
H         48.86293        35.36688         0.46032
H         49.99359        37.40528        -0.27190
H         51.16060        39.53968        -0.42741
H         52.31054        41.64263        -0.30423
H         53.49243        43.90535         0.14458
H         54.00317        45.84234         2.43207
H         55.91723        48.08592         0.15932
H         57.16626        50.11773         1.10840
H         58.36856        52.22834         1.09808
H         59.59228        54.35777         1.27730
H         60.78995        56.53831         1.29735
H         61.95462        58.64037         1.27328
H         63.12870        60.81497         1.56919
H         64.30242        62.92111         1.81780
H         65.39702        65.10198         2.45254
H         66.57715        67.15274         2.72348
H         67.45562        69.23041         3.60758
H         68.13616        71.27331         4.86116
H         67.94505        73.73079         5.23548
