         404
 CSIRO Nanostructure Databank - Neutral Graphene Oxide Data Set
C          1.31813         2.05960        -1.12309
C          1.26991         3.46209        -1.03460
C          2.52969         1.39940        -1.04221
C          2.43618         4.21397        -0.85292
C          1.14827         6.45462        -0.71662
C          1.17478         7.80501        -0.54659
C          2.39227         5.69770        -0.87729
C          2.38320         8.52014        -0.20081
C          1.64946        10.63421        -1.09532
C          1.71274        12.01144        -1.53251
C          2.37061         9.99149        -0.11191
C          2.13940        13.03119        -0.73579
C          1.62430        15.10607        -1.91661
C          1.74709        16.46848        -2.08510
C          2.50799        14.40457        -1.06380
C          2.81465        17.14885        -1.46291
C          2.90165        18.57176        -1.61694
C          3.73525         2.12658        -0.83264
C          3.69049         3.55507        -0.71748
C          4.96734         1.44286        -0.73719
C          4.90845         4.27347        -0.40838
C          3.68215         6.44694        -0.47542
C          3.56165         7.82688        -0.00230
C          4.89012         5.66460        -0.16315
C          4.67454         8.34196         0.88255
C          3.45147        10.63194         0.69275
C          3.57438        12.10067         0.62544
C          4.70437         9.86930         1.03009
C          4.71961        12.81693         0.54715
C          3.62407        15.03092        -0.44806
C          3.79956        16.42732        -0.71420
C          4.65568        14.32065         0.40923
C          4.97401        17.14681        -0.29518
C          3.96739        19.26301        -1.12414
C          5.05743        18.55832        -0.51201
C          6.17386         2.12912        -0.48091
C          6.14183         3.55359        -0.28297
C          7.40099         1.42906        -0.38944
C          7.35089         4.24142         0.02859
C          6.06945         6.36864         0.25679
C          6.01340         7.73067         0.57197
C          7.32661         5.65029         0.29943
C          7.19551         8.46535         1.04919
C          5.99136        10.62642         0.99292
C          5.95249        12.14184         1.16795
C          7.19394         9.95508         0.99528
C          7.24723        12.82672         0.82342
C          5.97111        15.03821         0.66019
C          6.10481        16.46229         0.24112
C          7.24740        14.25341         0.77113
C          7.29619        17.14972         0.46689
C          6.22103        19.25778        -0.16373
C          7.36038        18.56781         0.29094
C          8.60623         2.09551        -0.08811
C          8.57640         3.52173         0.12969
C          9.83290         1.39622         0.02036
C          9.77660         4.20314         0.47346
C          8.51340         6.32146         0.63038
C          8.50626         7.72967         1.08515
C          9.73951         5.61827         0.68353
C          9.78095         8.49132         1.07384
C          8.47006        10.65137         0.95144
C          8.46779        12.08420         0.83351
C          9.71706         9.94740         0.97277
C          9.70927        12.77508         0.68271
C          8.44921        14.95801         0.70549
C          8.49117        16.42762         1.04227
C          9.70257        14.23041         0.48697
C          9.81111        17.12586         0.76515
C          8.57482        19.26195         0.52787
C          9.79181        18.56846         0.69215
C         11.03312         2.06293         0.35609
C         11.00306         3.48060         0.59916
C         12.26524         1.39058         0.50442
C         12.17885         4.14943         1.03806
C         10.90908         6.30499         1.13394
C         10.96022         7.76550         1.18746
C         11.98579         5.48444         1.49520
C         12.27370         8.48553         1.19937
C         10.92749        10.67601         0.84973
C         10.93980        12.09183         0.70703
C         12.21982         9.96942         0.93640
C         12.20874        12.82988         0.65328
C         11.01997        14.97887         0.51910
C         11.01815        16.45035         0.72026
C         12.26473        14.21188         0.69604
C         12.28499        17.15233         0.70530
C         11.00682        19.27002         0.61972
C         12.24605        18.59875         0.61957
C         13.47755         2.08803         0.73986
C         13.47575         3.51214         0.98012
C         14.70015         1.37777         0.68739
C         14.73487         4.21845         0.91874
C         13.81088         6.52073         1.37031
C         13.54702         7.77508         0.85856
C         14.83431         5.65141         0.89253
C         14.61262         8.39050         0.06794
C         13.40671        10.67585         0.40577
C         13.43173        12.05927         0.44636
C         14.56531         9.93348        -0.10177
C         14.69455        12.73933         0.34848
C         13.56171        14.97575         0.42793
C         13.52674        16.48203         0.79611
C         14.77816        14.10163         0.71877
C         14.70835        17.30430         0.79779
C         13.42597        19.34142         0.41079
C         14.67557        18.70909         0.46440
C         15.93903         2.05063         0.63921
C         15.94526         3.49166         0.65167
C         17.15510         1.33743         0.50430
C         17.17331         4.16814         0.38435
C         15.98371         6.32056         0.36950
C         15.92845         7.70869         0.05897
C         17.19055         5.59241         0.20267
C         17.10369         8.38152        -0.34180
C         15.84485        10.62797        -0.23105
C         15.89003        11.97650         0.07451
C         17.05723         9.84842        -0.61756
C         17.16830        12.71340         0.08257
C         16.03012        14.54635         1.21153
C         15.99351        16.83487         1.16212
C         17.24511        13.88087         0.98267
C         17.19241        17.46688         0.81684
C         15.88873        19.43095         0.25150
C         17.14802        18.82170         0.30355
C         18.38476         2.00407         0.32310
C         18.38472         3.43850         0.21552
C         19.61388         1.29947         0.22787
C         19.61219         4.12752        -0.02721
C         18.37876         6.29005        -0.13010
C         18.33152         7.68380        -0.38546
C         19.62762         5.55190        -0.17414
C         19.61569         8.35944        -0.84040
C         18.37764        10.58710        -0.68287
C         18.43155        12.03150        -0.30433
C         19.64073         9.84196        -0.56330
C         19.68565        12.49082         0.42719
C         18.51467        14.48827         1.21755
C         18.44161        16.74879         1.02643
C         19.70924        13.98478         0.65585
C         19.54390        16.86605         0.24753
C         18.37211        19.59122         0.12960
C         19.57535        18.99785        -0.23140
C         20.83895         1.97426         0.07338
C         20.84001         3.41282        -0.06017
C         22.07672         1.27841         0.05398
C         22.07387         4.11203        -0.17707
C         20.84955         6.23021        -0.29040
C         20.82935         7.72564        -0.15738
C         22.08362         5.53805        -0.27963
C         22.11690         8.40255        -0.57141
C         20.84719        10.51154        -0.50360
C         20.91510        11.93556        -0.22578
C         22.08312         9.77899        -0.70154
C         22.05355        12.69261        -0.41119
C         20.90309        14.72622         0.39202
C         20.85856        16.21798         0.49375
C         22.07590        14.10867        -0.08678
C         22.07502        17.05818         0.22908
C         20.91651        19.41157        -0.00988
C         22.04932        18.55704        -0.00236
C         23.31020         1.95377        -0.00658
C         23.31254         3.40550        -0.09589
C         24.53474         1.24055        -0.00567
C         24.52062         4.12435        -0.05232
C         23.33195         6.25277        -0.34447
C         23.35286         7.67574        -0.55224
C         24.54982         5.54082        -0.20354
C         24.59231         8.37197        -0.63833
C         23.27659        10.53721        -1.09163
C         23.24018        12.04029        -1.02600
C         24.60915         9.80195        -1.01921
C         24.54792        12.78846        -1.01749
C         23.31098        14.87459        -0.26045
C         23.33055        16.31925        -0.08534
C         24.49866        14.21851        -0.60284
C         24.52458        17.04501        -0.16272
C         23.30136        19.19381         0.00920
C         24.53266        18.49417        -0.03274
C         25.78841         1.89937         0.01335
C         25.76657         3.37679         0.20516
C         26.99891         1.21585         0.01110
C         27.04761         4.15029         0.24174
C         25.80710         6.27251        -0.20446
C         25.81336         7.70444        -0.42039
C         27.00976         5.60543        -0.00213
C         27.05682         8.44342        -0.44917
C         25.84439        10.59714        -0.82578
C         25.81977        12.01180        -0.87845
C         27.05688         9.88073        -0.61149
C         27.04139        12.71677        -0.70380
C         25.73288        14.97995        -0.77692
C         25.77830        16.38843        -0.38466
C         27.07389        14.20467        -0.81997
C         26.99777        17.06822        -0.26963
C         25.75064        19.18534        -0.03364
C         26.99913        18.50769        -0.09204
C         28.29193         1.89433        -0.17234
C         28.31183         3.43241        -0.12482
C         29.57154         1.24274         0.05406
C         29.59611         4.12219         0.07808
C         28.26432         6.35384         0.12337
C         28.28076         7.78053        -0.23534
C         29.57851         5.59840         0.22888
C         29.53733         8.46309        -0.29924
C         28.29341        10.59105        -0.52547
C         28.24319        12.01147        -0.55360
C         29.54885         9.89193        -0.41842
C         29.50638        12.77943        -0.55268
C         28.24012        14.95608        -0.35633
C         28.24339        16.34423        -0.20928
C         29.44195        14.18027        -0.04831
C         29.48871        17.06057         0.07225
C         28.21258        19.19811        -0.02537
C         29.47206        18.52499         0.05964
C         30.79129         1.95830         0.10725
C         30.78033         3.42660         0.05697
C         32.00080         1.29435         0.33455
C         32.04370         4.15831         0.09222
C         30.82078         6.32537        -0.10334
C         30.76675         7.73390        -0.29279
C         32.01659         5.58765        -0.12630
C         32.02390         8.49110        -0.44307
C         30.79942        10.60134        -0.34936
C         30.81326        12.06822        -0.47310
C         32.01960         9.94543        -0.21317
C         32.05731        12.82274        -0.17686
C         30.73381        14.91014         0.18736
C         30.69302        16.38303         0.18689
C         32.00482        14.19811        -0.07010
C         31.96239        17.08873         0.43790
C         30.65429        19.25858         0.08540
C         31.94507        18.64475         0.38535
C         33.25452         2.01630         0.73131
C         33.22741         3.47613         0.34193
C         34.53750         1.32925         0.29500
C         34.49640         4.20016         0.48828
C         33.29439         6.28199        -0.36506
C         33.32745         7.77641        -0.42895
C         34.56570         5.59161        -0.02228
C         34.47481         8.46834         0.29601
C         33.28536        10.64875        -0.10288
C         33.30502        12.08716        -0.12206
C         34.50771         9.95468         0.03944
C         34.52309        12.76961         0.03145
C         33.22584        14.99537        -0.18778
C         33.23865        16.42696         0.15525
C         34.53713        14.23160        -0.11917
C         34.43633        17.14484         0.11230
C         33.22266        19.28964         0.06434
C         34.40210        18.59721         0.04237
C         35.74491         1.98065         0.24827
C         35.80196         3.44479         0.47635
C         36.99581         1.33079        -0.05718
C         37.03305         4.19251         0.14235
C         35.81826         6.36024         0.15821
C         35.80427         7.76182         0.14682
C         37.03166         5.62681         0.13334
C         37.01955         8.48446         0.16548
C         35.75003        10.64333         0.13284
C         35.76455        12.07307         0.16766
C         37.00367         9.93877         0.19232
C         37.00485        12.77494         0.26461
C         35.70866        15.00281         0.35372
C         35.71328        16.45655         0.12043
C         37.01146        14.23773         0.47732
C         36.93943        17.13099         0.12567
C         35.68091        19.33820        -0.28476
C         36.95809        18.57026        -0.01313
C         38.18748         2.03446        -0.17139
C         38.21437         3.48755        -0.08567
C         39.43818         1.35716        -0.41823
C         39.45341         4.20169        -0.23287
C         38.25739         6.34210         0.02892
C         38.25018         7.76656         0.08346
C         39.48240         5.62634        -0.13322
C         39.49924         8.46109         0.08404
C         38.21311        10.65449         0.25543
C         38.23276        12.08608         0.26116
C         39.48146         9.90646         0.37139
C         39.48769        12.83654         0.21632
C         38.24791        15.00012         0.29256
C         38.19851        16.40702         0.20109
C         39.47802        14.27487         0.18262
C         39.43184        17.14066         0.12254
C         38.14606        19.25163         0.00769
C         39.40806        18.56664         0.08022
C         40.61106         2.04502        -0.54236
C         40.65803         3.48315        -0.44338
C         41.87169         4.20030        -0.54344
C         40.71715         6.33561        -0.23733
C         40.71166         7.78072        -0.10911
C         41.90089         5.58436        -0.43863
C         41.91536         8.55625        -0.31095
C         40.79378        10.68179         0.26276
C         40.72498        12.16041         0.11766
C         41.94481         9.91334        -0.22714
C         41.91631        12.89816        -0.02688
C         40.70021        15.00289         0.07408
C         40.68042        16.45546         0.09167
C         41.90825        14.28352        -0.04455
C         41.87044        17.21686         0.06690
C         40.61527        19.28673         0.05647
C         41.83526        18.60924         0.06073
O          2.33604        12.75397         0.62113
O          7.72509         7.92585         2.32395
O         12.95233         6.01421         2.35282
O         18.49274        15.68443         1.95862
O         35.20014         3.92947         1.74944
O         26.41758         3.73733         1.49797
O         26.44754        14.69995        -2.03307
O         23.92346        10.03846        -2.29661
O         23.75930        12.62411        -2.25544
O         16.05099        15.70020         1.98137
O         29.96106        14.32021         1.31674
O         17.83197        12.95284        -1.23661
O          4.95334        14.93677         1.71155
O         10.38507        14.64848        -0.79191
O         28.24960         2.76042        -1.40092
O         12.45995         9.43076         2.31331
O         28.92406         6.08121         1.44576
O          3.28308         6.27359        -1.88375
O         32.86173         8.26285        -1.70357
O         19.48441        17.72970        -0.85786
O         40.27702        10.24470         1.56367
O         36.20764        14.61349         1.66902
O         17.64391        10.25466        -1.90920
O          3.73438        10.22896         2.09487
O         34.10942         5.64709        -1.42689
O         34.02275        14.69314        -1.40143
O         21.60262        16.77367         1.62851
O         30.27019        12.56339        -1.78156
O         14.22393         9.00307        -1.19823
O         31.95857        17.90031         1.65091
O         33.27949         1.99385         2.21000
H         34.01715         2.59904         2.47420
O         20.65456         7.99602         1.27032
H         21.36598         7.52813         1.75587
O         13.58489        15.05928        -1.04601
H         12.66884        15.23092        -1.35774
O          5.78376        12.32998         2.61294
H          4.98558        11.81835         2.87972
O          8.35283        16.49152         2.50946
H          7.47284        16.12219         2.74166
O          4.36017         7.77624         2.19781
H          3.85184         8.46786         2.68536
O         19.71981         8.17355        -2.27169
H         19.02896         8.73933        -2.68634
O         19.56626        11.85452         1.74670
H         20.34154        12.12175         2.28405
O         34.10391         8.30799         1.71151
H         34.80652         8.71977         2.25839
O         35.70513        20.61342         0.36558
H         35.68298        20.46303         1.33281
H          0.38840         1.49516        -1.27812
H          0.30026         3.96717        -1.14058
H          2.57570         0.30458        -1.13013
H          0.18328         5.93018        -0.75880
H          0.22519         8.35761        -0.49832
H          1.04563         9.98099        -1.74593
H          1.45639        12.21105        -2.58256
H          0.78862        14.55859        -2.37421
H          1.02139        17.02981        -2.68964
H          2.08960        19.09048        -2.14633
H          4.98429         0.34889        -0.85155
H          4.04008        20.35336        -1.24268
H          7.40898         0.34047        -0.54605
H          6.26714        20.34652        -0.31133
H          9.84770         0.30903        -0.14597
H          8.59179        20.35733         0.42931
H         12.30483         0.30175         0.35025
H         10.99166        20.36495         0.51435
H         14.67802         0.28295         0.58133
H         13.35913        20.42138         0.21533
H         17.13488         0.23785         0.53095
H         15.81567        20.49794        -0.00406
H         19.60918         0.20259         0.31355
H         18.35528        20.65414         0.41462
H         22.07100         0.18070         0.12975
H         21.10629        20.48203         0.16956
H         24.50947         0.14091        -0.03102
H         23.33166        20.29423        -0.01492
H         26.99597         0.11627         0.05771
H         25.74400        20.28248         0.05101
H         29.57361         0.17623         0.32334
H         28.20217        20.29694         0.03146
H         31.99902         0.19532         0.40028
H         30.61876        20.34151        -0.10886
H         34.51000         0.23912         0.14198
H         33.22850        20.36760        -0.15887
H         37.00125         0.23702        -0.17803
H         35.66380        19.55693        -1.39180
H         39.43039         0.25998        -0.49572
H         38.14147        20.34843        -0.07788
H         41.55184         1.50324        -0.71970
H         42.80928         3.64738        -0.70025
H         42.87049         6.09502        -0.51322
H         42.82406         8.03668        -0.64525
H         42.84917        10.44817        -0.55018
H         42.87860        12.37369        -0.09696
H         42.86473        14.81295        -0.14195
H         42.84798        16.71702         0.05756
H         40.59069        20.38534         0.02932
H         42.77644        19.17626         0.04650
