         404
 CSIRO Nanostructure Databank - Neutral Graphene Oxide Data Set
C          1.31506         2.01943         1.02884
C          1.32115         3.41185         1.20109
C          2.49743         1.32804         0.82655
C          2.52087         4.14522         1.16974
C          1.35863         6.31419         1.55048
C          1.36698         7.69108         1.68825
C          2.55017         5.59121         1.33954
C          2.56849         8.43004         1.61346
C          1.38587        10.61423         1.91803
C          1.37043        12.03519         1.82792
C          2.54524         9.87909         1.75707
C          2.49349        12.78012         1.55346
C          1.30466        15.04166         1.79197
C          1.35979        16.39967         1.78918
C          2.39966        14.23180         1.23483
C          2.54837        17.12659         1.40941
C          2.58517        18.55213         1.51084
C          3.73601         2.02473         0.79310
C          3.74527         3.44698         0.96085
C          4.94942         1.32906         0.58291
C          4.99054         4.15191         0.93653
C          3.78692         6.30603         1.28064
C          3.79205         7.73381         1.40691
C          5.01635         5.58871         1.08662
C          5.03987         8.46977         1.28277
C          3.82742        10.59177         1.73103
C          3.81737        12.14024         1.59306
C          5.04130         9.86136         1.35491
C          5.02070        12.81062         1.02332
C          3.67995        14.96870         0.88297
C          3.72059        16.43057         1.06335
C          4.96689        14.24216         0.79519
C          4.94569        17.12539         0.86870
C          3.74864        19.24475         1.29116
C          4.96635        18.55837         0.97509
C          6.18189         2.00196         0.57521
C          6.18831         3.41824         0.78639
C          7.39179         1.28503         0.26340
C          7.47468         4.11604         0.89541
C          6.24857         6.30152         0.97829
C          6.27189         7.73494         1.04764
C          7.48061         5.59347         0.79739
C          7.48050         8.42504         0.82186
C          6.28434        10.65790         1.27527
C          6.21939        12.10658         0.90992
C          7.55817         9.89105         1.00659
C          7.41815        12.76547         0.43633
C          6.11433        14.96477         0.51207
C          6.14107        16.41240         0.54362
C          7.31711        14.21973        -0.00278
C          7.34618        17.14211         0.33727
C          6.16553        19.25817         0.77768
C          7.36859        18.57664         0.46789
C          8.62595         1.91147         0.14296
C          8.73690         3.32165         0.58866
C          9.81535         1.24729        -0.27944
C          9.96707         4.07018         0.20134
C          8.65149         6.28722         0.47281
C          8.63620         7.71559         0.38815
C          9.91057         5.56536         0.16111
C          9.71103         8.39346        -0.28389
C          8.75292        10.63714         0.48712
C          8.61318        12.09031         0.22058
C          9.87973         9.88302        -0.17045
C          9.83429        12.78218        -0.15682
C          8.59832        14.99407         0.20976
C          8.57672        16.47317         0.03781
C          9.86857        14.24790         0.03844
C          9.75087        17.18215        -0.18498
C          8.59211        19.27484         0.34266
C          9.80236        18.61400         0.01315
C         11.00505         1.93871        -0.59072
C         10.89339         3.42799        -0.81736
C         12.22805         1.30213        -0.81627
C         12.20690         4.18092        -0.93388
C         10.89792         6.23456        -0.71117
C         10.60827         7.58955        -0.99453
C         12.12635         5.60075        -1.03061
C         12.43033         8.73530        -1.20727
C         10.93019        10.69023        -0.99325
C         10.99057        12.13717        -0.53882
C         12.27999        10.01194        -0.80317
C         12.26727        12.86149        -0.60447
C         11.01758        14.98135        -0.55989
C         10.96600        16.46571        -0.65371
C         12.30583        14.26701        -0.60338
C         12.27509        17.18419        -0.80322
C         11.03373        19.30207        -0.00211
C         12.29329        18.70127        -0.43594
C         13.43739         2.02680        -1.05944
C         13.40980         3.47926        -1.10427
C         14.65413         1.34706        -1.18414
C         14.66168         4.19555        -1.22918
C         13.38873         6.40915        -1.37531
C         13.39554         7.75832        -0.58588
C         14.67512         5.61363        -1.18994
C         14.74421         8.45611        -0.43591
C         13.47690        10.72849        -0.31511
C         13.50729        12.17226        -0.57137
C         14.77384         9.96101        -0.31754
C         14.74798        12.84184        -0.65694
C         13.52702        14.98731        -0.66138
C         13.53699        16.42584        -0.68920
C         14.75877        14.26988        -0.71818
C         14.75698        17.12131        -0.67172
C         13.59779        19.25507        -0.12018
C         14.78209        18.55886        -0.41421
C         15.90925         2.02197        -1.31458
C         15.89363         3.48218        -1.31371
C         17.10595         1.30930        -1.35203
C         17.10841         4.19329        -1.31781
C         15.90416         6.29722        -1.15913
C         15.97616         7.73641        -0.81185
C         17.13301         5.60174        -1.20584
C         17.18729         8.51763        -1.13263
C         15.99458        10.68350        -0.72664
C         15.98411        12.09663        -0.79731
C         17.14210         9.92932        -1.11822
C         17.20241        12.82751        -1.07595
C         15.99228        14.98220        -0.83295
C         15.99369        16.40340        -0.78369
C         17.21318        14.25741        -1.01944
C         17.23840        17.10898        -0.87683
C         16.03552        19.20926        -0.33963
C         17.25490        18.55277        -0.65575
C         18.41228         1.96411        -1.46885
C         18.39332         3.47682        -1.43651
C         19.68944         1.27527        -1.19889
C         19.58036         4.18425        -0.86829
C         18.39216         6.34319        -1.14950
C         18.39905         7.77709        -1.24029
C         19.60182         5.65845        -0.97452
C         19.65258         8.46126        -1.21762
C         18.32197        10.67400        -1.56974
C         18.39044        12.13099        -1.40795
C         19.66409         9.88980        -1.59189
C         19.61729        12.82477        -1.63696
C         18.43512        14.96891        -1.22230
C         18.42922        16.40811        -1.10768
C         19.61161        14.24052        -1.57175
C         19.67285        17.17039        -1.36018
C         18.44718        19.28033        -0.70045
C         19.69075        18.70871        -1.21211
C         20.88959         1.96462        -1.00724
C         20.85406         3.41995        -0.68906
C         22.14996         1.32993        -0.97286
C         22.11498         4.19137        -0.62251
C         20.83590         6.34565        -0.76124
C         20.82242         7.77682        -0.85996
C         22.04721         5.60748        -0.55361
C         22.04080         8.56920        -0.59247
C         20.86952        10.69690        -1.48062
C         20.88358        12.08114        -1.67103
C         22.07116        10.01619        -0.96933
C         22.15974        12.78113        -1.62979
C         20.85639        14.97745        -1.87690
C         20.92391        16.37182        -1.40180
C         22.18210        14.23039        -1.87904
C         22.11424        16.85550        -0.95098
C         20.93092        19.56444        -1.23069
C         22.15373        19.10554        -0.81060
C         23.36641         2.03910        -0.70644
C         23.33727         3.49244        -0.56539
C         24.58099         1.36489        -0.60734
C         24.59296         4.20848        -0.47981
C         23.30606         6.32821        -0.28149
C         23.32839         7.84291        -0.34964
C         24.58681         5.62609        -0.43151
C         24.60749         8.50450        -0.61754
C         23.37044        10.65728        -1.29573
C         23.37514        12.13008        -1.38976
C         24.63977         9.91049        -1.07136
C         24.64414        12.79028        -1.35995
C         23.44236        14.98164        -1.65243
C         23.41183        16.30760        -1.28543
C         24.70519        14.21775        -1.74264
C         24.61037        17.20630        -1.32714
C         23.50228        19.54245        -0.98822
C         24.62796        18.66799        -0.92748
C         25.80907         2.05242        -0.07559
C         25.82698         3.52162        -0.40776
C         27.11744         1.36874        -0.34908
C         27.04776         4.23623        -0.46551
C         25.79718         6.35286        -0.42229
C         25.79570         7.80639        -0.51193
C         27.02224         5.65342        -0.52097
C         27.04542         8.54266        -0.49042
C         25.86162        10.68933        -0.80297
C         25.82782        12.12152        -0.96873
C         27.00676         9.97889        -0.46103
C         27.04054        12.88040        -0.73702
C         26.01120        14.97836        -1.60577
C         25.96935        16.48886        -1.49219
C         27.14167        14.22984        -1.01598
C         27.17465        17.18313        -1.01133
C         25.88565        19.26580        -0.75056
C         27.13390        18.56261        -0.70381
C         28.30960         2.06904        -0.37862
C         28.31355         3.52566        -0.41611
C         29.57853         1.38935        -0.36262
C         29.52620         4.21343        -0.39569
C         28.26713         6.41894        -0.69176
C         28.27136         7.86997        -0.42867
C         29.57952         5.67248        -0.61293
C         29.51420         8.55346        -0.19689
C         28.21253        10.68676        -0.00991
C         28.20120        12.19778        -0.12052
C         29.49978         9.96029         0.03565
C         29.49149        12.89671        -0.01580
C         28.43517        14.92718        -0.90698
C         28.44541        16.46898        -0.93712
C         29.59012        14.24433        -0.28738
C         29.63803        17.15057        -0.42092
C         28.34402        19.24492        -0.38910
C         29.59128        18.57613        -0.26160
C         30.78583         2.07493        -0.27751
C         30.77610         3.52719        -0.27328
C         32.04263         1.38193        -0.17045
C         31.97225         4.26075        -0.20811
C         30.79491         6.41863        -0.23760
C         30.74919         7.83779        -0.06898
C         31.98966         5.69325        -0.09058
C         31.94754         8.54684         0.28529
C         30.67667        10.65982         0.33480
C         30.62609        12.13015         0.53072
C         31.91828         9.96892         0.44195
C         31.94190        12.88027         0.64978
C         30.81509        14.98428        -0.07876
C         30.82101        16.42764        -0.17335
C         31.98531        14.30632         0.28895
C         32.03682        17.13276         0.08848
C         30.79800        19.26509         0.00615
C         32.02981        18.57385         0.12486
C         33.25233         2.05962        -0.14159
C         33.24468         3.53158        -0.27972
C         34.51545         1.40697        -0.00516
C         34.51612         4.29340         0.07349
C         33.20851         6.39180         0.27944
C         33.16948         7.83073         0.48226
C         34.39055         5.69324         0.47441
C         34.37041         8.53140         0.77503
C         33.15088        10.69037         0.64042
C         33.19404        12.11047         0.65019
C         34.37155         9.96785         0.78005
C         34.41477        12.81639         0.69426
C         33.23803        14.98499         0.37270
C         33.24891        16.41992         0.28093
C         34.43864        14.25943         0.58981
C         34.47614        17.12162         0.43107
C         33.25554        19.25786         0.29752
C         34.47963        18.55984         0.42410
C         35.70769         2.09651         0.24559
C         35.71558         3.52325         0.44734
C         36.95660         1.38864         0.37889
C         36.86903         4.20404         0.84331
C         35.53178         6.33193         1.20987
C         35.60003         7.81800         0.99043
C         36.85925         5.63206         1.04615
C         36.81018         8.47746         1.19147
C         35.58140        10.68346         0.98192
C         35.62877        12.08903         0.88984
C         36.79664         9.94086         1.33195
C         36.89757        12.78634         0.85928
C         35.68906        14.95258         0.65344
C         35.69600        16.40260         0.59818
C         36.90312        14.22993         0.72893
C         36.90133        17.11511         0.75461
C         35.71699        19.24325         0.52985
C         36.92833        18.54306         0.66854
C         38.13795         2.05456         0.61008
C         38.13792         3.49341         0.84127
C         39.40895         1.35533         0.75392
C         39.31800         4.17802         1.01395
C         38.04071         6.33716         1.25423
C         38.06243         7.77263         1.31025
C         39.29447         5.56936         1.59018
C         39.31269         8.46988         1.29274
C         38.13147        10.68447         1.30945
C         38.09946        12.09017         0.91204
C         39.37097         9.88976         1.17538
C         39.37002        12.74689         0.45598
C         38.16094        14.91581         0.80123
C         38.14088        16.37593         1.01363
C         39.37707        14.23448         0.74051
C         39.46690        17.13857         0.90433
C         38.18671        19.23505         0.57437
C         39.40035        18.57010         0.54935
C         40.57576         2.02611         0.85626
C         40.62844         3.52081         0.66144
C         41.80206         4.20659         1.30412
C         40.57818         6.32930         1.39927
C         40.56200         7.72056         1.29270
C         41.78446         5.54348         1.52966
C         41.79081         8.45782         1.14895
C         40.59520        10.58401         1.03109
C         40.62344        12.01879         0.89386
C         41.81043         9.81671         1.02853
C         41.79992        12.76011         0.97191
C         40.64024        14.91908         0.72467
C         40.68424        16.36823         0.59448
C         41.81902        14.15959         0.81489
C         41.79711        17.05997         0.15167
C         40.62327        19.20837         0.15974
C         41.77269        18.47523        -0.01860
O         38.87337        16.81932         2.20429
O         18.57555         2.82079        -2.71693
O         18.89843        10.16772        -2.80805
O         11.39026         8.19533        -1.98647
O         14.13161        10.36867         0.94390
O         24.06706        10.04404        -2.44406
O         25.29144        17.10304        -2.62336
O         29.01339         6.07071        -1.91828
O          7.21968        10.33277         2.36349
O         28.75319        15.64615        -2.13297
O         15.55578         7.87049         0.63480
O         25.56407        14.48188        -2.90213
O          8.33345         3.54968         1.96200
O          9.96449        10.27658         1.23548
O          4.07142        11.48227         2.87313
O         23.28629         7.15364         0.94677
O         37.42632        10.41293         2.57381
O         19.96152         3.69557         0.46374
O         31.09896        12.60265         1.83211
O         10.67949        15.62869        -1.84106
O          9.41101        14.64612         1.38104
O         27.90841        11.52511         1.16397
O         12.25394        18.17446        -1.83316
O         10.57241         4.82226         1.26553
O         21.49928        14.62809        -3.13204
O         22.09765        17.91433        -0.05179
O          2.72588        14.53324        -0.16967
O         21.87619         9.62575         0.44032
O         34.13245         4.03952        -1.33112
O         19.51356        18.05005        -2.53145
O         39.36874        12.62577        -1.02552
H         40.19610        13.04521        -1.34582
O         40.80731         3.73080        -0.79001
H         40.06202         3.28025        -1.24200
O         35.19974         6.17077         2.65207
H         35.78520         6.77865         3.15395
O         39.21260         5.35736         3.05829
H         38.36909         4.88672         3.23453
O         10.54060        10.71283        -2.37905
H         10.72010         9.81684        -2.74897
O         25.65705         1.99001         1.40915
H         24.82597         2.46313         1.63232
O         10.19183         3.59453        -2.09582
H         10.66616         3.06247        -2.76907
O         13.38960         6.77183        -2.78278
H         13.37987         5.94725        -3.31195
O          7.15152        14.19615        -1.46031
H          6.23474        13.91240        -1.66122
O         12.90256         7.50772         0.74398
H         13.66732         7.54844         1.36237
H          0.35920         1.47810         1.05749
H          0.36064         3.91816         1.36247
H          2.49111         0.23680         0.69442
H          0.39576         5.79101         1.60920
H          0.41291         8.20707         1.85571
H          0.41447        10.11079         2.00965
H          0.38910        12.52926         1.85839
H          0.43714        14.53307         2.23592
H          0.51005        16.97854         2.18097
H          1.66147        19.08799         1.77325
H          4.92403         0.24108         0.42323
H          3.76540        20.34155         1.36708
H          7.30383         0.21611         0.01727
H          6.17620        20.35402         0.87358
H          9.80530         0.14811        -0.34411
H          8.60268        20.36363         0.49865
H         12.28934         0.20811        -0.71097
H         11.06106        20.33802         0.36806
H         14.65334         0.24737        -1.14339
H         13.65798        20.26027         0.32261
H         17.07931         0.21623        -1.22562
H         16.05921        20.28900        -0.12838
H         19.70829         0.17656        -1.26906
H         18.44331        20.32955        -0.36753
H         22.20548         0.24383        -1.14151
H         20.85803        20.49999        -1.80475
H         24.59529         0.26871        -0.70909
H         23.70849        20.61517        -1.12667
H         27.13853         0.26807        -0.32500
H         25.91376        20.34825        -0.55409
H         29.58220         0.28877        -0.36245
H         28.30960        20.33398        -0.23941
H         32.03258         0.28368        -0.09995
H         30.78492        20.36128         0.09463
H         34.54229         0.30765        -0.05424
H         33.26017        20.35781         0.31747
H         36.95854         0.29477         0.25799
H         35.73037        20.34209         0.47721
H         39.38973         0.25570         0.80106
H         38.16502        20.31688         0.37252
H         41.52520         1.47966         0.96232
H         42.72943         3.63222         1.44857
H         42.71052         6.03989         1.85843
H         42.74104         7.90742         1.12662
H         42.77529        10.32768         0.91020
H         42.75357        12.26086         1.19423
H         42.78957        14.67273         0.85674
H         42.72497        16.52204        -0.08916
H         40.61945        20.29125        -0.03109
H         42.69375        18.97845        -0.34432
