         467
 CSIRO Nanostructure Databank - Neutral Graphene Oxide Data Set
C         40.55370        51.69500         6.56557
C         39.41958        52.38723         6.98832
C         39.70611        53.93682         5.16520
C         38.98892        53.51135         6.28135
C         42.59391        49.89071         5.34888
C         42.56277        51.38226         5.06560
C         41.27165        52.09821         5.42781
C         41.52132        53.79543         3.47279
C         40.85570        53.25445         4.73385
C         42.06798        55.19587         3.62533
C         44.48226        49.54113         3.77159
C         43.50152        49.07366         4.78425
C         44.18142        50.87103         3.14125
C         42.95303        51.59597         3.60424
C         43.54652        53.42107         1.92749
C         42.57448        52.85903         2.89835
C         43.69460        54.78299         1.82499
C         43.00759        55.65677         2.77699
C         46.38995        46.42779         2.74696
C         45.49073        47.28057         3.39456
C         46.13913        49.11060         1.91839
C         45.35679        48.61413         3.01103
C         45.91546        50.40663         1.34855
C         44.71375        51.13914         1.77250
C         45.51740        53.08009         0.34973
C         44.43421        52.51756         1.17130
C         45.45234        54.50088         0.06179
C         44.51153        55.32670         0.74329
C         44.78377        57.04206        -0.94174
C         44.24339        56.62585         0.26876
C         48.31074        44.63961         1.45121
C         48.21544        46.01342         1.10536
C         47.21882        46.89039         1.71829
C         47.90971        48.77300         0.24381
C         47.10162        48.25498         1.30149
C         47.78892        50.10267        -0.20414
C         46.71084        50.91886         0.30176
C         47.65603        52.96890        -0.91380
C         46.52643        52.27987        -0.16431
C         47.24271        54.19350        -1.77616
C         46.20082        55.02496        -1.02280
C         47.41343        57.12147        -2.82061
C         45.71593        56.21168        -1.57903
C         47.46982        58.47855        -2.99734
C         50.22767        44.35340        -0.02848
C         49.25437        43.82779         0.86070
C         50.17839        45.73700        -0.36473
C         49.10798        46.52679         0.15087
C         49.93549        48.48044        -1.30063
C         48.86448        47.86725        -0.40831
C         49.88352        49.93651        -1.49392
C         48.78663        50.66741        -1.09122
C         49.84581        52.78350        -2.01480
C         48.55456        52.02440        -1.73844
C         49.80020        54.19362        -2.19122
C         48.54981        54.95172        -2.17881
C         49.85991        56.93137        -3.09584
C         48.57121        56.27968        -2.60509
C         49.89007        58.45069        -3.01469
C         48.73214        59.15774        -2.99632
C         52.42317        41.36490        -0.60365
C         51.31077        42.12457        -0.31182
C         52.41400        44.14613        -1.15825
C         51.30514        43.53221        -0.51425
C         52.35749        45.53212        -1.49165
C         51.23868        46.32206        -1.14593
C         52.29785        48.38396        -2.01594
C         51.20197        47.73720        -1.49238
C         52.28337        49.81399        -2.42563
C         51.00790        50.59499        -2.19637
C         52.30747        52.72260        -2.29940
C         51.04950        52.07146        -2.15419
C         52.30617        54.14755        -2.29868
C         51.06010        54.87469        -2.35574
C         52.29802        57.00982        -2.35449
C         51.09544        56.26867        -2.55479
C         52.28807        58.41546        -2.42206
C         51.23423        59.11241        -3.24759
C         52.31473        61.29148        -2.53277
C         51.25816        60.60848        -3.06215
C         54.90410        39.77813        -1.07260
C         54.82803        41.17785        -1.15274
C         53.63626        41.96590        -1.02328
C         54.81981        44.05524        -1.67854
C         53.63805        43.38586        -1.32202
C         54.80719        45.38917        -2.29549
C         53.47064        46.13280        -2.25977
C         54.75467        48.36400        -2.75250
C         53.46945        47.61816        -2.47409
C         54.80002        49.84366        -2.56479
C         53.58376        50.54533        -2.49140
C         54.76169        52.71449        -2.46778
C         53.54581        51.99036        -2.41768
C         54.75200        54.11795        -2.39962
C         53.53942        54.84871        -2.31817
C         54.74474        56.99055        -2.05715
C         53.54827        56.28946        -2.18563
C         54.71669        58.39218        -1.67874
C         53.37844        59.17837        -1.86054
C         54.62830        61.32315        -1.51447
C         53.45799        60.63809        -1.97484
C         54.63722        62.73166        -1.30412
C         57.36467        39.68518        -1.27172
C         56.12657        39.06866        -1.06370
C         57.33296        41.13591        -1.55793
C         56.10061        41.90695        -1.22127
C         57.34923        44.10027        -1.85409
C         56.10535        43.40553        -1.46231
C         57.29052        45.48742        -2.26425
C         56.08524        46.14353        -2.47248
C         57.33785        48.40114        -2.84804
C         56.04999        47.59207        -2.85734
C         57.30863        49.86767        -2.59588
C         56.07639        50.52513        -2.57103
C         57.28548        52.71011        -2.26684
C         56.06285        52.01861        -2.82769
C         57.24886        54.06881        -2.06192
C         56.04098        54.83963        -2.42682
C         57.25989        56.98351        -1.64547
C         56.05354        56.33156        -2.23544
C         57.26452        58.46563        -1.59199
C         55.94911        59.21372        -1.73718
C         57.06472        61.30624        -1.00704
C         55.87216        60.62931        -1.34396
C         57.02147        62.71142        -0.74980
C         55.78756        63.39108        -0.92248
C         60.02740        36.96594        -1.39828
C         58.77757        37.62713        -1.43367
C         59.87160        39.83176        -1.48345
C         58.63726        39.01727        -1.39774
C         59.84402        41.28770        -1.19820
C         58.60167        41.95451        -1.58409
C         59.79435        44.09455        -1.47571
C         58.54408        43.42500        -1.59519
C         59.84514        45.43123        -2.09205
C         58.59632        46.15456        -2.52009
C         59.88037        48.42772        -2.36558
C         58.64296        47.66778        -2.70482
C         59.87345        49.91471        -2.43821
C         58.57604        50.59892        -2.48304
C         59.77003        52.78813        -2.16438
C         58.52993        51.97602        -2.21654
C         59.72659        54.10547        -1.44978
C         58.37854        54.78673        -1.44410
C         59.53886        56.90483        -0.65099
C         58.35989        56.25923        -1.30363
C         59.47268        58.39522        -0.39599
C         58.35427        59.19282        -0.94437
C         59.51037        61.30572        -0.39015
C         58.30743        60.57325        -0.79975
C         59.43494        62.73890        -0.24525
C         58.22417        63.41158        -0.36647
C         59.31261        65.59565        -0.13971
C         58.19325        64.85129        -0.10261
C         62.70826        35.57678        -1.18565
C         62.53024        37.01000        -1.08966
C         61.23582        37.64169        -1.25034
C         62.29950        39.87490        -0.69074
C         61.21473        39.11634        -1.34016
C         62.11495        41.23165        -0.29744
C         60.92957        42.00833        -0.72504
C         62.04433        44.34548        -0.56561
C         60.91203        43.47779        -0.88099
C         62.13970        45.64945        -1.07279
C         61.08800        46.24281        -1.92126
C         62.34265        48.39513        -2.07620
C         61.01290        47.71802        -2.06401
C         62.27211        49.88160        -1.75527
C         61.07414        50.62495        -2.32932
C         62.31283        52.95467        -1.93438
C         61.12214        52.11740        -2.35213
C         62.21398        54.28502        -1.40140
C         60.95366        54.92357        -1.23925
C         62.07240        56.98994        -0.52214
C         60.87637        56.25120        -0.77167
C         62.03642        58.40976        -0.08568
C         60.72049        59.15007        -0.06102
C         61.95622        61.32826         0.27880
C         60.70162        60.61905        -0.17788
C         61.95282        62.78432        -0.15919
C         60.66835        63.54692         0.15028
C         61.88110        65.76579        -0.21490
C         60.61736        64.94267        -0.54334
C         61.81198        67.05185         0.49213
C         65.17533        35.72282        -0.95629
C         63.91662        34.96324        -1.05706
C         64.98638        37.22338        -0.71963
C         63.63536        37.79796        -0.74267
C         64.58128        39.87040         0.24591
C         63.49293        39.18377        -0.37621
C         64.33367        41.14082         0.82301
C         63.06540        41.74096         0.60177
C         64.31523        44.52825         0.44920
C         63.05790        43.95203         0.39059
C         64.52340        45.73526        -0.35509
C         63.30621        46.44891        -0.80555
C         64.56774        48.56518        -0.78456
C         63.39203        47.75817        -1.18942
C         64.73171        49.88586        -1.42124
C         63.65756        50.36098        -2.09984
C         64.76299        53.02764        -1.53003
C         63.60982        52.50890        -2.16294
C         64.68402        54.34889        -1.07241
C         63.41228        55.01170        -1.08735
C         64.57247        57.10781        -0.43156
C         63.33744        56.37467        -0.68199
C         64.52026        58.49949        -0.26950
C         63.27958        59.21330        -0.17724
C         64.47115        61.35638         0.08196
C         63.24527        60.60369        -0.07566
C         64.58414        62.84676        -0.19061
C         63.23509        63.54458        -0.28085
C         64.34511        65.68990         0.58742
C         63.22069        65.04443        -0.12489
C         64.23450        67.03276         0.95737
C         62.93376        67.66709         0.94508
C         67.68219        33.05622        -0.02486
C         66.54595        33.68977        -0.51058
C         67.50437        35.86793         0.06535
C         66.43104        35.08602        -0.45430
C         67.33879        37.33026         0.07557
C         66.07896        37.94872        -0.05730
C         66.97344        40.03975         0.93583
C         65.89085        39.28937         0.36723
C         66.72319        41.35379         1.47890
C         65.41208        41.80625         1.50084
C         66.73652        44.48542         1.06296
C         65.42187        44.03898         1.21766
C         66.96130        45.77975         0.46704
C         65.83485        46.42475        -0.23813
C         67.12265        48.61076        -0.30069
C         65.82583        47.90793        -0.30113
C         67.16598        49.98771        -0.61303
C         65.90411        50.69259        -0.97862
C         67.18205        52.89784        -0.79833
C         65.90653        52.19236        -1.05361
C         67.13355        54.29673        -0.59528
C         65.88932        55.01269        -0.64313
C         67.05030        57.05836        -0.00026
C         65.83979        56.39955        -0.36803
C         67.03543        58.52148         0.16479
C         65.75171        59.26790        -0.05565
C         66.78742        61.37221         0.95406
C         65.64693        60.68600         0.30905
C         66.79919        62.85474         1.00717
C         65.63444        63.55705         0.64162
C         66.70168        65.64616         1.35924
C         65.55637        64.95347         0.85946
C         66.63527        67.05555         1.60655
C         65.39544        67.74432         1.45962
C         66.48073        69.78699         2.23204
C         65.35140        69.11767         1.76920
C         70.36464        31.95254         0.50315
C         69.77728        32.99510         1.24214
C         68.67223        33.78691         0.65149
C         69.56206        35.90429         1.61611
C         68.59063        35.19785         0.73428
C         70.05085        37.18075         1.29545
C         68.42035        38.20936         0.32295
C         69.39110        40.12453         1.68635
C         68.28436        39.48134         0.89808
C         69.17143        41.54415         2.15956
C         67.84916        42.22956         1.92487
C         69.24530        44.34178         1.46164
C         67.87630        43.74333         1.67405
C         69.37857        45.75935         0.94334
C         68.15595        46.48568         0.54233
C         69.48791        48.56554         0.35902
C         68.26534        47.88355         0.16864
C         69.50562        50.08748         0.30952
C         68.33942        50.73823        -0.40505
C         69.61220        52.87615        -0.30679
C         68.36603        52.15685        -0.53323
C         69.58076        54.31206        -0.28593
C         68.35894        54.99500        -0.29999
C         69.51580        57.10149         0.34072
C         68.29810        56.40353         0.01855
C         69.44642        58.44139         0.97454
C         68.11298        59.13394         0.98971
C         69.27443        61.29769         1.72826
C         68.00382        60.58719         1.34881
C         69.20173        62.81736         1.82947
C         67.94420        63.53396         1.48263
C         69.13506        65.68076         1.87426
C         67.92313        64.94429         1.58186
C         69.07383        67.07233         2.08882
C         67.80009        67.75891         2.03944
C         68.91962        69.82275         2.97127
C         67.71095        69.13103         2.36817
C         68.87907        71.32697         2.91083
C         71.69700        31.28883         2.41504
C         71.32535        31.11898         1.07825
C         71.12714        32.31434         3.17243
C         70.18576        33.16140         2.57749
C         70.64361        36.27630         3.79500
C         69.95015        35.44637         2.90222
C         70.97407        37.59467         3.45807
C         70.69516        38.06894         2.17093
C         71.70812        40.32355         2.66548
C         70.82748        39.53413         1.72457
C         71.52366        41.63247         2.94452
C         70.36786        42.36777         2.46421
C         71.58291        44.52966         2.29427
C         70.40390        43.72793         2.16695
C         71.67459        45.83884         1.85713
C         70.60479        46.53361         1.22719
C         71.84046        48.71856         1.07620
C         70.63538        47.91207         0.89311
C         71.95878        49.98217         0.61727
C         70.84556        50.66094        -0.14967
C         72.00644        52.94437         0.19867
C         70.81609        52.18853        -0.06375
C         72.03908        54.30506         0.14913
C         70.87237        55.09495        -0.37460
C         71.93337        57.27640         0.41828
C         70.76742        56.50521         0.17759
C         71.88639        58.60929         0.81600
C         70.66942        59.26498         1.11415
C         71.72711        61.46574         1.58081
C         70.58307        60.64426         1.46511
C         71.66971        62.85029         1.73679
C         70.46473        63.58127         1.76945
C         71.58857        65.79559         1.93016
C         70.40569        65.00250         1.85020
C         71.53115        67.15654         2.10096
C         70.28468        67.84127         2.23811
C         71.35851        70.08052         2.34549
C         70.22190        69.23837         2.46779
C         71.26469        71.45036         2.47055
C         69.99948        72.07133         2.73047
O         62.74099        42.92124         1.28523
O         59.13272        57.43608         0.66052
O         63.79674        51.40535        -3.00150
O         58.79520        46.74557        -3.82950
O         69.61208        34.17216         3.37554
O         61.33327        58.67467         1.19733
O         67.61470        43.20110         2.99643
O         53.88468        45.41674        -3.45125
O         60.74167        39.58473        -2.64307
O         65.13439        43.02058         2.14275
O         66.80646        59.17358        -1.13313
O         45.22874        50.78078         4.15405
O         66.93779        60.78933         2.32290
O         56.81205        59.00631        -2.89152
O         62.51469        63.05066        -1.47136
O         43.76476        51.30988         0.68726
O         60.43501        52.77549        -3.46710
O         56.25293        55.74303        -3.57079
O         56.69789        47.99546        -4.10353
O         53.83788        47.99765        -3.83783
O         69.57440        44.57201         0.05499
O         56.26629        42.82906        -0.08987
O         69.69788        37.69505         0.02910
O         46.13239        56.55343        -2.87705
O         65.45730        51.49640         0.20667
O         60.87102        45.47267        -3.15245
O         69.15347        61.95436         3.02262
O         64.85566        48.49442         0.66170
O         41.92395        51.57130         2.57851
O         68.53085        58.37219         2.15132
O         62.82876        65.77091        -1.33558
O         57.96793        41.44262        -2.83082
O         48.76161        47.81719        -1.87423
O         53.86694        58.69488        -0.55315
O         65.50604        45.68517        -1.47089
O         51.33743        50.06444        -3.53149
O         65.39354        36.67803        -2.03333
O         68.96803        40.39655         3.05989
O         58.89134        54.07044        -0.25453
O         62.83854        48.29581        -3.44114
H         62.65517        47.39045        -3.77400
O         69.36016        50.49984         1.70652
H         68.44660        50.28579         1.99194
O         49.90826        56.64390        -4.55886
H         49.93666        55.66777        -4.66543
O         71.01514        50.33264        -1.55691
H         71.93545        50.54853        -1.81357
O         56.17166        52.14215        -4.28243
H         55.50060        51.55404        -4.68999
O         47.91514        51.70458        -2.99087
H         48.45957        51.03065        -3.44934
O         61.90471        61.34242         1.74526
H         61.76212        60.40010         2.01864
O         71.44805        39.62751         0.43300
H         71.00134        38.98187        -0.16424
O         62.09505        50.04923        -0.31665
H         62.96726        50.05224         0.13671
O         46.59823        53.77091        -2.98543
H         46.26579        54.57834        -3.43728
O         71.12545        55.27084        -1.82317
H         71.14445        54.37562        -2.22399
O         48.49087        53.53385         0.14058
H         48.68077        52.82902         0.79455
O         60.64677        63.78998         1.57503
H         60.86514        62.93631         2.02290
O         68.86693        69.48494         4.41146
H         69.65746        69.88699         4.83043
O         65.14170        62.90730        -1.54156
H         64.39270        62.76549        -2.16429
O         51.57279        58.88100        -4.65567
H         51.12641        58.04418        -4.93462
O         40.48080        53.89109         2.45846
H         40.32229        52.97671         2.13483
O         43.58727        52.01427         5.87815
H         44.45224        51.61133         5.61696
O         60.54174        64.76967        -1.96508
H         61.46842        64.78386        -2.30600
H         40.89097        50.82514         7.14606
H         38.87236        52.04933         7.87923
H         39.37059        54.81759         4.59970
H         38.09365        54.06035         6.60448
H         41.88611        49.46668         6.07638
H         41.59849        55.86874         4.35786
H         43.49222        48.00438         5.04219
H         43.33717        56.70428         2.84282
H         46.45519        45.38825         3.09181
H         44.89675        46.88265         4.22808
H         44.47877        57.98691        -1.40871
H         43.51049        57.25843         0.78680
H         47.61051        44.19714         2.17104
H         46.54180        59.04667        -3.13573
H         49.27939        42.76544         1.13547
H         48.73371        60.25604        -3.01221
H         52.38815        40.28086        -0.43022
H         50.41602        41.62292         0.07879
H         52.29340        62.39115        -2.55443
H         50.44672        61.18883        -3.52453
H         53.97971        39.19099        -0.97900
H         53.70867        63.30508        -1.42805
H         56.08448        37.97944        -0.91899
H         55.73621        64.47559        -0.76047
H         60.01801        35.86681        -1.40945
H         57.87278        37.00272        -1.45241
H         59.24590        66.68322         0.00234
H         57.23025        65.33260         0.11868
H         61.81261        34.94977        -1.30073
H         60.83887        67.53488         0.65255
H         63.94690        33.86539        -1.00896
H         62.82669        68.64995         1.42362
H         67.77368        31.96438        -0.10347
H         65.74946        33.08554        -0.96388
H         66.38741        70.85156         2.48382
H         64.41919        69.68580         1.65460
H         70.06826        31.79983        -0.54427
H         67.93287        71.83371         3.14739
H         72.43921        30.61868         2.86983
H         71.77880        30.31695         0.48043
H         71.40405        32.45924         4.22465
H         70.87901        35.89112         4.79541
H         71.44163        38.24989         4.20568
H         72.62478        39.82637         3.01698
H         72.28535        42.17010         3.52936
H         72.46762        44.08243         2.76909
H         72.62443        46.36448         2.02794
H         72.70466        48.25868         1.57689
H         72.92596        50.49443         0.73155
H         72.92109        52.41152         0.49713
H         72.97950        54.82634         0.37740
H         72.91939        56.82920         0.23234
H         72.83606        59.15339         0.91141
H         72.72290        61.00831         1.50188
H         72.62618        63.38895         1.78177
H         72.57307        65.31240         1.87526
H         72.47231        67.71641         2.18386
H         72.33194        69.64327         2.08184
H         72.15537        72.07878         2.33672
H         69.94601        73.16909         2.76716
