         276
 CSIRO Nanostructure Databank - Neutral Graphene Oxide Data Set
C        -10.76340         0.44460         0.96528
C         -9.84397         1.37160         0.23287
C         -8.73791         0.95333        -0.73279
C         -7.47547         1.77331        -0.82722
C         -6.18125         1.01385        -1.08098
C         -4.89149         1.68072        -0.62773
C         -3.60855         0.88553        -0.63335
C         -2.44512         1.34322         0.23703
C         -1.14398         0.61352         0.12696
C          0.18326         1.33454         0.49517
C          1.39580         0.74437        -0.22090
C          2.52669         1.44700        -0.52230
C          3.83608         0.85599        -1.05133
C          5.04413         1.54036        -0.38641
C          6.33595         0.80739        -0.35234
C          7.56101         1.48423         0.15970
C          8.61242         0.79232         1.01942
C          9.91807         1.51785         0.67956
C         11.06673         0.76238         0.23135
C         -9.66727         2.66942         1.01435
C         -8.69494         3.66749         0.43490
C         -7.46570         3.16765        -0.26849
C         -6.18994         3.74352         0.21257
C         -5.07426         2.75852         0.46303
C         -3.76950         3.48281         0.82020
C         -2.45600         2.76713         0.75719
C         -1.10466         3.53247         0.90299
C          0.01091         2.81481         0.15289
C          1.19677         3.55869        -0.36682
C          2.51897         2.89277        -0.35398
C          3.67717         3.56152        -0.02875
C          4.94714         2.85055         0.03614
C          6.16502         3.65956         0.35789
C          7.48389         2.96564         0.40303
C          8.68983         3.67231         1.06834
C          9.93019         2.88321         0.69521
C         -8.74887         4.97314         0.76867
C         -7.52580         5.78326         0.41651
C         -6.32674         5.00749         1.01300
C         -5.05576         5.70480         0.65693
C         -3.78110         5.00004         0.86703
C         -2.48789         5.75521         0.77255
C         -1.18249         5.04547         0.57896
C         -0.05069         5.80222        -0.05214
C          1.19877         5.04493        -0.39583
C          2.44073         5.78493        -0.06222
C          3.62355         4.98965         0.39995
C          4.79860         5.75627         0.94636
C          6.19960         5.06862         1.06790
C          7.46338         5.77590         0.45249
C          8.64081         5.09981         0.54285
C         -7.50784         7.25388         0.74819
C         -6.33184         7.91955         0.60402
C         -5.07493         7.14168         0.40048
C         -3.76340         7.92303         0.46358
C         -2.40365         7.28079         0.68101
C         -1.46596         7.97594        -0.40122
C         -0.11771         7.19264        -0.72558
C          1.19612         7.96514        -0.38512
C          2.25019         7.21022         0.45955
C          3.59225         7.92267         0.42311
C          4.67987         7.24534         0.86016
C          6.52350         7.99900        -0.14792
C          7.38799         6.97975        -0.38821
C         -6.23840         9.37598         0.48330
C         -5.07212        10.05468         0.48178
C         -3.79218         9.38325         0.91581
C         -2.47794        10.06455         0.55226
C         -1.34994         9.41909         0.14400
C         -0.07144        10.11607         0.04355
C          1.08566         9.41885        -0.03522
C          2.35619         9.66626        -0.80566
C          3.67599         9.37391        -0.05855
C          4.85063         9.62762        -1.00825
C          6.07500         9.05135        -1.05076
C        -10.90383        -0.89829         0.89226
C        -10.21130        -1.71453        -0.09449
C         -8.64603        -0.47228        -1.12450
C         -7.50581        -1.21789        -1.23801
C         -6.19956        -0.47302        -1.35121
C         -4.89300        -1.27885        -1.50566
C         -3.60862        -0.56991        -1.00472
C         -2.44194        -1.27928        -0.94182
C         -1.10654        -0.54914        -0.86065
C          0.09232        -1.43297        -0.52322
C          1.38203        -0.72745        -0.25542
C          2.62762        -1.45618        -0.64399
C          3.85594        -0.68785        -1.01995
C          5.17030        -1.42536        -0.93581
C          6.37533        -0.69432        -0.45183
C          7.30750        -1.48193         0.47393
C          8.66503        -0.79031         0.98303
C          9.88728        -1.41243         0.31561
C         11.04448        -0.58638         0.04522
C         -9.70109        -2.95787         0.02508
C         -8.87273        -3.49591        -1.13776
C         -7.54538        -2.72157        -1.34875
C         -6.24342        -3.47135        -1.12260
C         -4.96554        -2.67309        -0.84274
C         -3.72377        -3.48751        -1.22769
C         -2.41357        -2.76343        -1.18218
C         -1.18745        -3.56380        -0.80801
C          0.14088        -2.87803        -0.92351
C          1.39140        -3.64609        -0.64705
C          2.64583        -2.90644        -0.15465
C          3.87130        -3.67454        -0.61230
C          5.13492        -2.93818        -0.89425
C          6.44650        -3.65971        -0.70125
C          7.57709        -2.89416        -0.07785
C          8.76297        -3.64884         0.55015
C          9.95118        -2.77244         0.19500
C         -8.69153        -4.96477        -0.89173
C         -7.49368        -5.58778        -0.49767
C         -6.26519        -4.84609        -0.58188
C         -4.95693        -5.51241        -0.20412
C         -3.77382        -4.98372        -1.01310
C         -2.51215        -5.77481        -0.88992
C         -1.18797        -5.06519        -0.77929
C          0.11436        -5.80272        -0.86137
C          1.30546        -5.11880        -0.21774
C          2.61449        -5.86131        -0.45284
C          3.92712        -5.13907        -0.17059
C          5.12284        -5.85545        -0.83003
C          6.42478        -5.13561        -0.51305
C          7.53648        -5.79749        -0.06448
C          8.88157        -5.08323        -0.01517
C         -7.55163        -6.91868         0.00459
C         -6.31134        -7.48965         0.62207
C         -5.15783        -7.07607        -0.32403
C         -3.88303        -7.90892        -0.15170
C         -2.58121        -7.16402        -0.28412
C         -1.51763        -7.68625         0.63270
C          0.21848        -7.17209        -1.09062
C          1.31733        -7.91864        -0.50762
C          2.58491        -7.23910        -0.49350
C          3.82632        -8.06229        -0.40549
C          5.13334        -7.34171        -0.43970
C          6.26964        -7.88664         0.34122
C          7.42863        -7.16006         0.42740
C         -6.30327        -8.93602         1.05691
C         -5.17508        -9.64775         1.20747
C         -3.93215        -9.35311         0.40130
C         -2.57739        -9.86346         0.87531
C         -1.38146        -9.17370         0.65307
C         -0.09843        -9.77310         0.60649
C          1.16688        -9.16938         0.22278
C          2.32947        -9.78675         0.69058
C          3.71160        -9.47083         0.18503
C          4.84783        -9.75554         1.14575
C          6.03353        -9.10162         1.10678
O          0.14218         3.03312        -1.26855
O          7.54685        -3.09768        -1.51263
O         -3.05812        -8.04928        -1.34711
O          5.85349         7.97368         1.09611
O          2.04641         5.60145        -1.45274
O         -0.96031        -6.97532         1.46180
O          6.36991         4.90991         2.43612
O         -4.33998         7.61415        -0.80455
O          2.00463         8.42730        -1.57495
O          7.05070         3.65801        -0.80508
O          6.22828        -1.02657        -1.86092
O         -3.19618         2.88777         2.02046
O          4.28206        -3.44770        -1.97182
O          2.95558        -1.23363        -2.04407
O         -9.97136         1.58716        -1.19173
O          4.67740        -8.13392        -1.60430
O          7.45989         1.23440        -1.25271
O         -6.81453        -3.28935        -2.47431
O         -9.91269        -1.03329        -1.28825
O         -3.90894         1.89086        -1.66707
O         -1.28023        -4.25023         0.47665
O         -3.06543         5.43166         2.09509
O         -0.19031         5.77430         1.39781
O          3.80975         5.16848         1.85274
O         -3.26896        -5.73319        -2.14071
O         -3.02332        -3.15393        -2.45027
O          1.00292        -3.31347        -2.00999
O          8.83714        -1.19408         2.32904
O          0.59277        -1.29937         0.84909
O         -7.61393         2.92020        -1.71312
O         -2.02579         0.37339         1.25403
O         -6.20540         0.52356        -2.44647
O         -0.66480        -7.83765        -1.86458
H         -0.44057        -8.78839        -1.90552
O          2.68199        -2.89951         1.28302
H          1.83911        -2.49818         1.60886
O         -6.52480         4.82637         2.44053
H         -5.71456         4.41737         2.81158
O          8.59288        -3.78633         1.96212
H          8.74758        -2.88415         2.36760
O         -4.73012        -1.47177        -2.91230
H         -5.00944        -0.64040        -3.35949
O          9.42904        -5.04735        -1.33757
H          8.87149        -4.42320        -1.86340
O          3.77544        10.28713         1.04790
H          4.56640        10.03040         1.56862
O         -9.63874        -3.36868        -2.35626
H         -9.00771        -3.45501        -3.10345
O          3.87074       -10.43377        -0.90588
H          4.42119        -9.97449        -1.58745
O         -0.86160         0.03233        -2.15941
H         -1.03952        -0.63326        -2.85685
O         -7.32064         5.71850        -1.01946
H         -8.12237         6.05509        -1.46972
O          0.42992         1.16839         1.89201
H         -0.42387         0.94825         2.32932
O         -1.90258         7.70095         1.96869
H         -1.11974         7.13455         2.18481
O         -5.62820        -7.32542        -1.65522
H         -4.86631        -7.17585        -2.26342
O         -2.18316         8.10589        -1.62049
H         -1.60215         7.81462        -2.36237
O         -0.10989         6.94771        -2.13752
H          0.82585         6.80151        -2.41573
O          4.13506        -5.20263         1.25290
H          3.46466        -4.61335         1.68004
O         -4.53903        -5.09065         1.13024
H         -5.18081        -5.45092         1.79244
O         -6.18382        -6.82395         1.94361
H         -6.96224        -7.09121         2.47717
O         -0.74593         3.45147         2.28586
H         -1.45929         3.89361         2.79911
O          8.21120         1.13799         2.35702
H          8.55605         0.40334         2.93124
O          6.49553        -1.65517         1.65536
H          7.13884        -1.58397         2.41682
O         -3.85577         9.41607         2.36763
H         -3.06426         8.92712         2.69936
O          1.81534         7.16343         1.82750
H          2.42543         6.56044         2.31582
O          8.60671         3.65971         2.49428
H          7.74822         4.10925         2.75934
O         -9.17870         2.29641         2.31537
H         -8.79055         3.08774         2.74505
O          4.93041        -5.78644        -2.24980
H          5.56476        -6.39465        -2.68155
O         -5.50372         1.98480         1.62600
H         -4.73049         1.94139         2.24383
O          1.14648        -5.11015         1.23321
H          0.30849        -5.57871         1.46767
O         -4.16037       -10.21780        -0.76103
H         -3.62309        -9.85137        -1.50085
O          3.93560         1.23315        -2.44250
H          3.57865         0.49309        -2.98189
O         -4.91790        -2.43859         0.58166
H         -4.72497        -3.30358         1.03271
H         11.95564        -1.09840        -0.30071
H         11.98754         1.32300         0.00727
H         10.85209         3.42487         0.42639
H          9.55582         5.53912         0.11381
H          8.01094         7.00005        -1.29602
H          6.76056         9.34255        -1.86321
H          4.64899        10.40051        -1.76989
H          2.39830        10.57366        -1.45298
H         -0.06725        11.21719         0.05334
H         -2.39034        11.11558         0.87509
H         -5.07014        11.14444         0.33054
H         -7.18234         9.91468         0.30510
H         -8.45385         7.80399         0.86957
H         -9.58516         5.39492         1.34738
H        -10.67870         3.16074         1.12546
H        -11.31725         0.94928         1.77373
H        -11.55058        -1.40353         1.62578
H         -9.85816        -3.56722         0.92471
H         -9.61197        -5.56835        -0.92236
H         -8.52060        -7.43365         0.07397
H         -7.23159        -9.29691         1.53114
H         -5.22161       -10.64053         1.68114
H         -2.52286       -10.95720         1.00971
H         -0.04325       -10.83801         0.88571
H          2.22408       -10.68727         1.31639
H          4.74581       -10.64396         1.78746
H          6.85392        -9.44340         1.75722
H          8.28131        -7.56595         0.99380
H          9.58785        -5.66693         0.62503
H         10.83278        -3.24028        -0.27282
