         638
 CSIRO Nanostructure Databank - Neutral Graphene Oxide Data Set
C         22.96269        69.76684         1.43356
C         22.95697        71.17725         1.59954
C         21.73406        71.88512         1.77032
C         22.94881        73.97630         1.93267
C         21.73660        73.25547         1.94600
C         25.42434        65.47097         0.79172
C         25.35030        66.88284         0.93600
C         24.18253        67.61565         1.16126
C         25.38761        69.80505         1.34957
C         24.16370        69.05727         1.29535
C         25.42771        71.19867         1.48916
C         24.18731        71.91199         1.60298
C         25.43034        74.15100         1.67444
C         24.16560        73.32469         1.75503
C         27.88847        61.23172         0.05165
C         27.87931        62.64087         0.30239
C         26.67638        63.34565         0.46096
C         27.90749        65.45163         0.61407
C         26.64368        64.76195         0.61792
C         27.90621        66.92577         0.65762
C         26.60951        67.65018         0.79243
C         27.93887        69.77681         1.37647
C         26.64229        69.04190         1.33967
C         27.92912        71.25180         1.44394
C         26.69375        71.92906         1.53943
C         27.92595        74.02764         1.74249
C         26.71535        73.35149         1.66781
C         30.32855        57.01862        -0.71972
C         30.31855        58.41393        -0.56353
C         29.10063        59.12736        -0.37017
C         30.38268        61.17315         0.26740
C         29.07721        60.50383        -0.08733
C         30.35978        62.67569         0.12813
C         29.14264        63.35723         0.31393
C         30.38721        65.52979         0.40903
C         29.12600        64.78200         0.47098
C         30.39544        66.89703         0.58938
C         29.18193        67.61400         1.11387
C         30.41481        69.82855         1.16335
C         29.15333        69.11824         0.75823
C         30.42252        71.20023         1.40298
C         29.16828        71.93087         1.48817
C         30.41808        74.03690         1.71517
C         29.18187        73.35008         1.66044
C         32.68037        52.62951        -1.08944
C         32.73169        54.14138        -1.10560
C         31.55820        54.86329        -1.01322
C         32.72947        57.02041        -1.18521
C         31.53141        56.30437        -0.96577
C         32.78118        58.43839        -1.01593
C         31.57222        59.14920        -0.63227
C         32.81023        61.26974        -0.36344
C         31.59627        60.51667        -0.34019
C         32.82214        62.64479        -0.12711
C         31.59405        63.37797         0.03798
C         32.85793        65.50547         0.12888
C         31.62582        64.80331         0.15435
C         32.89419        66.92153         0.53852
C         31.62941        67.72630         0.36875
C         32.96190        69.81346         1.09424
C         31.65128        69.05003         1.11548
C         32.89941        71.28225         1.13192
C         31.67172        71.93270         1.42380
C         32.89375        74.06117         1.46872
C         31.65501        73.35847         1.55565
C         35.27166        48.34052        -1.22538
C         35.28559        49.85032        -1.07041
C         34.07543        50.55538        -1.16036
C         35.24011        52.69139        -1.02835
C         34.03468        51.95432        -1.10929
C         35.21955        54.14279        -1.16618
C         33.99220        54.81495        -1.25664
C         35.27686        57.01557        -1.54219
C         33.94729        56.26382        -1.51370
C         35.26204        58.47246        -1.27570
C         34.00834        59.13100        -1.06956
C         35.20641        61.33195        -1.12583
C         34.11163        60.51196        -0.46689
C         35.24661        62.76695        -0.77210
C         34.14613        63.35921         0.07137
C         35.28528        65.59292        -0.32400
C         34.09805        64.86272        -0.09511
C         35.35383        67.01334        -0.11345
C         34.20373        67.67601         0.52469
C         35.27830        69.87502         0.20454
C         34.17058        69.15560         0.55089
C         35.24594        71.38632         0.13603
C         34.06835        72.01537         0.86484
C         35.34455        74.17739         0.81905
C         34.07073        73.41101         1.09865
C         37.80987        44.13442        -0.04749
C         37.77057        45.64067         0.06086
C         36.53507        46.29569        -0.51586
C         37.75915        48.40831        -0.49924
C         36.51800        47.62438        -0.74686
C         37.74651        49.89174        -0.58336
C         36.47216        50.58514        -0.88539
C         37.74070        52.71445        -0.64803
C         36.46114        51.98943        -0.87286
C         37.74586        54.20070        -0.82275
C         36.46486        54.87496        -1.17035
C         37.76518        56.96636        -1.05364
C         36.49501        56.24655        -1.29160
C         37.74463        58.46609        -1.03291
C         36.46614        59.16404        -1.24392
C         37.70908        61.29585        -0.82745
C         36.50636        60.64369        -1.54013
C         37.73232        62.79935        -1.01355
C         36.53106        63.50014        -0.80725
C         37.70844        65.62739        -0.91749
C         36.51595        64.90787        -0.70527
C         37.64995        67.12366        -1.12164
C         36.48077        67.77261        -0.41850
C         37.73194        69.88121        -0.08103
C         36.51454        69.18591        -0.13762
C         37.77655        71.27500         0.36402
C         36.56913        71.99963         0.53077
C         37.80460        73.90300         1.38626
C         36.59745        73.33917         0.95051
C         40.44981        39.96739         0.19409
C         40.33844        41.39289         0.29659
C         39.12592        42.04723         0.12223
C         40.21936        44.26535         0.40451
C         39.00780        43.48526         0.17280
C         40.27589        45.59968         0.02403
C         39.03916        46.21244        -0.58642
C         40.24192        48.40917        -0.65150
C         39.06925        47.71854        -0.56708
C         40.25315        49.83569        -1.17085
C         39.01825        50.61941        -0.82312
C         40.26245        52.73094        -1.03379
C         39.02449        51.98306        -0.82663
C         40.24449        54.09603        -1.24750
C         39.02698        54.88159        -1.17808
C         40.25260        57.02908        -1.77064
C         39.02722        56.24350        -1.34594
C         40.23795        58.48954        -1.35136
C         39.02706        59.19130        -1.20062
C         40.19268        61.32024        -1.32579
C         39.00725        60.60502        -1.17081
C         40.15360        62.78861        -1.66333
C         38.92528        63.51029        -1.18231
C         40.18158        65.65063        -1.12906
C         38.92558        64.92988        -1.13322
C         40.14613        67.05447        -0.86400
C         38.96136        67.78523        -0.79691
C         40.16695        69.84255        -0.23552
C         38.96827        69.17738        -0.37790
C         40.28025        71.11846         0.52451
C         39.00575        71.91067         0.67620
C         40.25560        73.77777         1.85170
C         39.01986        73.19692         1.27784
C         43.05720        35.81738         0.47597
C         42.98873        37.22798         0.51456
C         41.76896        37.89644         0.29913
C         42.94184        40.11317         0.42470
C         41.66487        39.30488         0.35010
C         42.71020        41.51045         0.93520
C         41.52282        42.13888         0.72586
C         42.67160        44.34947         0.94318
C         41.37036        43.60255         1.10929
C         42.68721        45.71567         0.49514
C         41.47853        46.35785         0.06652
C         42.70345        48.43709        -0.45411
C         41.51386        47.73834        -0.38441
C         42.80598        49.80760        -1.09222
C         41.53061        50.61315        -0.95457
C         42.78383        52.74271        -1.13536
C         41.52938        51.98519        -1.03239
C         42.77389        54.08488        -1.34817
C         41.49800        54.79631        -1.71396
C         42.73518        56.98419        -1.36377
C         41.52043        56.28386        -1.43570
C         42.72749        58.47088        -1.70783
C         41.45231        59.19996        -1.36914
C         42.65552        61.37960        -1.37446
C         41.43603        60.62684        -1.34919
C         42.64904        62.78418        -1.47616
C         41.44188        63.50907        -1.40065
C         42.67332        65.59542        -1.06512
C         41.43156        64.92727        -1.21021
C         42.66481        67.06532        -0.99153
C         41.42937        67.74554        -0.46091
C         42.72653        69.88088        -0.30998
C         41.43174        69.23814        -0.79667
C         42.70283        71.30420        -0.05157
C         41.46976        71.88548        -0.00582
C         42.81881        73.93386         1.58561
C         41.44418        73.70484         1.18756
C         45.54079        33.04315         0.95842
C         44.32242        33.72277         0.70030
C         45.54891        35.90655         0.76002
C         44.25896        35.11797         0.69586
C         45.36177        37.31362         1.27298
C         44.16813        37.99138         0.93523
C         45.20397        40.10803         1.58053
C         44.09260        39.38936         1.08257
C         45.16028        41.56045         1.62818
C         43.81559        42.24693         1.65726
C         45.10287        44.38021         1.17429
C         43.85518        43.69110         1.22354
C         45.10425        45.77462         0.85634
C         43.90386        46.40949         0.44658
C         45.00990        48.65710         0.49437
C         44.01676        47.74916        -0.23014
C         45.05089        50.07899         0.05690
C         44.03616        50.60537        -0.67488
C         45.27409        52.84605        -0.77801
C         44.11089        52.00031        -1.26020
C         45.28385        54.20332        -1.07713
C         44.04869        54.83324        -1.68643
C         45.23075        57.09458        -1.64204
C         43.96695        56.31114        -1.36957
C         45.16322        58.54621        -1.22175
C         43.97024        59.20226        -1.26875
C         45.18701        61.41174        -1.31907
C         43.91880        60.67737        -0.94514
C         45.18876        62.79170        -1.50073
C         43.91738        63.53495        -1.82635
C         45.12722        65.64333        -1.23567
C         43.93146        64.95395        -1.30766
C         45.17213        66.98423        -0.54361
C         43.94861        67.80701        -0.87173
C         45.17124        69.86410        -0.04659
C         43.91883        69.20988        -0.40351
C         45.17197        71.19416         0.30582
C         43.98077        72.11876         0.04682
C         45.21746        73.89135         1.31534
C         43.92887        73.29733         1.05346
C         46.68579        33.72544         1.30722
C         47.72373        35.83688         1.98401
C         46.69360        35.16380         1.40353
C         47.66251        37.29254         2.35874
C         46.44477        38.02226         1.82170
C         47.60473        40.15864         2.48444
C         46.38763        39.42255         1.93991
C         47.63050        41.70851         2.21214
C         46.31450        42.29191         1.73946
C         47.55118        44.41003         1.28208
C         46.31900        43.71152         1.44420
C         47.54197        45.83309         1.07998
C         46.30754        46.51011         0.94926
C         47.53684        48.71173         1.32612
C         46.23323        47.98360         1.04039
C         47.48342        50.20012         0.98381
C         46.24555        50.88575         0.43627
C         47.56987        52.98484         0.06806
C         46.39557        52.24817        -0.13442
C         47.62833        54.35246        -0.32770
C         46.45445        54.99992        -0.84516
C         47.65401        57.15161        -0.88409
C         46.47618        56.39682        -1.12358
C         47.65730        58.57692        -1.06511
C         46.41950        59.28155        -1.16466
C         47.65607        61.36285        -1.77897
C         46.40574        60.67870        -1.30698
C         47.62776        62.85788        -1.58163
C         46.43071        63.52717        -1.57633
C         47.64133        65.77601        -1.47380
C         46.36834        65.03208        -1.82601
C         47.65705        67.09452        -1.04449
C         46.44152        67.78873        -0.66868
C         47.66327        69.85043        -0.08066
C         46.42897        69.11403        -0.21815
C         47.68291        71.15392         0.38178
C         46.41317        71.74877         0.94775
C         47.66037        73.94073         1.04926
C         46.41161        73.25061         1.05735
C         48.90409        38.07631         2.01325
C         50.09640        40.19120         1.82807
C         48.89125        39.44537         2.04578
C         50.08951        41.56274         1.57962
C         48.75361        42.19640         1.27348
C         49.99108        44.42661         1.21032
C         48.79105        43.71522         1.29036
C         49.98421        45.86357         1.07451
C         48.76374        46.54842         0.97006
C         50.00149        48.74922         0.86846
C         48.70591        48.01745         0.61035
C         49.97071        50.17946         0.88117
C         48.77909        50.88867         0.83005
C         50.05688        53.03764         0.48883
C         48.73711        52.40055         0.86068
C         50.05423        54.40292         0.14244
C         48.85481        55.09185        -0.19234
C         50.08633        57.24412        -0.37914
C         48.86983        56.49800        -0.47113
C         50.11229        58.63892        -0.69031
C         48.88954        59.31787        -1.01800
C         50.12848        61.43787        -1.28105
C         48.91417        60.70027        -1.29412
C         50.15561        62.84033        -1.52231
C         48.90334        63.57153        -1.79653
C         50.22737        65.83303        -1.69840
C         48.90534        65.08134        -1.81477
C         50.11444        67.10147        -0.89018
C         48.93636        67.77284        -0.80461
C         50.18760        69.85429        -0.01542
C         48.93385        69.27667        -0.64092
C         50.17480        71.24361         0.36236
C         48.91333        71.89699         0.48624
C         50.10421        74.11619         0.59823
C         48.85521        73.29877         0.77709
C         51.27180        42.31547         1.47270
C         52.45169        44.45406         1.20559
C         51.26171        43.72256         1.27653
C         52.45938        45.87431         1.09436
C         51.22065        46.59505         1.02885
C         52.47248        48.73582         0.97341
C         51.21300        48.02560         0.97550
C         52.50037        50.13745         0.89690
C         51.25069        50.93271         1.19119
C         52.52613        52.96475         0.36996
C         51.27181        52.34015         0.64541
C         52.58446        54.35424         0.05431
C         51.33647        55.15321         0.36760
C         52.54672        57.20335        -0.28941
C         51.33103        56.56260        -0.14050
C         52.61297        58.71004        -0.24293
C         51.33282        59.37054        -0.69773
C         52.61359        61.45060        -1.13233
C         51.35598        60.73886        -0.99950
C         52.61513        62.82001        -1.34160
C         51.38112        63.56385        -1.42664
C         52.65698        65.65710        -1.05432
C         51.41783        64.97301        -1.34847
C         52.64116        67.01227        -0.62403
C         51.33730        67.62666        -0.19147
C         52.60777        69.74895         0.30697
C         51.36378        69.12507        -0.03650
C         52.58506        71.11403         0.77185
C         51.40270        71.90732         0.73377
C         52.50476        74.20098         0.87637
C         51.40359        73.36614         0.83673
C         53.67782        46.57800         1.06206
C         54.93318        48.68361         0.96942
C         53.70890        47.99022         0.98826
C         54.96668        50.08710         0.83440
C         53.72990        50.82129         0.74613
C         54.99396        52.89537         0.30886
C         53.75382        52.22456         0.47734
C         55.04205        54.24581        -0.15135
C         53.79414        54.99106        -0.28587
C         54.78634        57.13776        -1.13392
C         53.74893        56.43780        -0.51220
C         55.03073        58.54696        -1.07511
C         53.84287        59.34788        -0.85153
C         55.12178        61.32361        -1.64516
C         53.84645        60.67888        -1.15649
C         55.11708        62.78488        -1.27976
C         53.89041        63.55559        -1.66950
C         55.10615        65.61559        -0.80251
C         53.89086        64.97084        -1.15149
C         55.06973        66.95939        -0.33638
C         53.84792        67.66339        -0.26692
C         55.08952        69.71515         0.43148
C         53.82722        69.04672         0.19079
C         55.07207        71.09439         0.88543
C         53.83420        71.61216         1.24872
C         55.06432        74.14469         0.74843
C         53.83224        73.75870         1.20904
C         56.18546        50.79634         0.84531
C         57.44164        52.88901         0.72970
C         56.22183        52.18652         0.61802
C         57.51512        54.23867         0.33664
C         56.34812        54.83133        -0.26038
C         57.63940        56.91407        -0.68708
C         56.58734        56.04815        -0.94209
C         57.59747        58.33058        -1.16978
C         56.31435        59.12055        -1.24112
C         57.58991        61.26202        -1.10730
C         56.39163        60.56106        -1.26940
C         57.55237        62.75062        -0.80734
C         56.40583        63.51909        -1.45515
C         57.58698        65.60310        -0.63533
C         56.36499        64.93186        -0.90702
C         57.59497        66.95924        -0.20761
C         56.30193        67.54005         0.30191
C         57.56093        69.69955         0.84477
C         56.29345        69.03907         0.36716
C         57.51477        71.20944         0.79268
C         56.28832        71.88236         0.94969
C         57.48436        74.02728         0.88574
C         56.26989        73.34478         0.92195
C         58.70732        55.00803         0.42538
C         59.95527        57.12654         0.16907
C         58.76867        56.35046         0.00140
C         60.03163        58.45504        -0.24024
C         58.88101        59.11085        -0.92298
C         60.03932        61.27749        -0.67508
C         58.84072        60.59082        -0.87961
C         60.12619        62.72437        -0.94881
C         58.83961        63.48911        -1.11213
C         60.06470        65.60490        -0.65067
C         58.84804        64.93077        -0.81496
C         60.05806        67.01640        -0.35959
C         58.80931        67.68227        -0.10257
C         59.99099        69.82427         0.19972
C         58.80803        69.07489         0.25476
C         59.95255        71.24528         0.42528
C         58.74426        71.92096         0.70354
C         59.94071        74.08905         0.89033
C         58.73797        73.36498         0.82688
C         61.19640        59.21976         0.00222
C         62.45001        61.33833        -0.09340
C         61.24996        60.59843        -0.27750
C         62.53003        62.73382        -0.24699
C         61.33683        63.48328        -0.61318
C         62.62458        65.61233        -0.64947
C         61.31416        64.86567        -0.61796
C         62.53508        67.03954        -0.17587
C         61.28390        67.72280        -0.17856
C         62.47632        69.82865         0.20212
C         61.26047        69.14103         0.03191
C         62.50901        71.29580         0.18012
C         61.16416        72.04595         0.25106
C         62.41449        74.10402         0.86443
C         61.19167        73.45296         0.70207
C         63.71733        63.44395         0.04807
C         64.92925        65.54971         0.33222
C         63.77939        64.84850        -0.03012
C         64.95642        66.97748         0.37449
C         63.71321        67.70561         0.17513
C         64.89956        69.82522         0.67569
C         63.70155        69.12588         0.36494
C         64.89022        71.25120         0.85403
C         63.70531        71.99485         0.63749
C         64.86444        74.06523         1.21622
C         63.66730        73.40518         0.86712
C         66.11579        67.67464         0.70791
C         67.30006        69.78729         1.19498
C         66.12588        69.09670         0.85407
C         67.30716        71.19730         1.37253
C         66.09058        71.93208         1.20538
C         67.29200        74.01287         1.71304
C         66.07788        73.35367         1.37159
C         68.48956        71.90018         1.71013
C         68.46906        73.28840         1.87617
O         41.35226        73.26209        -0.16226
O         37.68894        49.22687         0.74322
O         45.13014        48.42486         1.92566
O         42.72168        58.44039        -3.15230
O         53.82492        72.69071         2.13549
O         34.75865        62.31558        -2.10177
O         32.45638        69.16176         2.31478
O         27.40791        69.16193         2.59298
O         58.54968        58.58457        -2.25596
O         37.72941        53.60682         0.52288
O         33.68417        67.05886         1.75716
O         37.76658        57.67874         0.24092
O         43.33740        67.64083        -2.19331
O         48.87123        64.33670        -3.09330
O         55.66648        56.40700        -1.93090
O         27.24547        67.50766        -0.52053
O         34.58453        56.65934        -2.78350
O         59.57073        63.07261        -2.28662
O         61.86542        71.85024        -1.01773
O         46.54758        50.89562         1.88910
O         34.57164        60.29550         0.90131
H         33.81801        59.95533         1.42758
O         35.03544        71.73764        -1.27107
H         35.17092        72.71412        -1.34046
O         29.05394        69.29651        -0.67318
H         29.88714        68.95257        -1.08062
O         51.39356        55.33006         1.84735
H         51.19856        54.45524         2.25195
O         57.33441        62.85713         0.62848
H         57.97809        62.27730         1.08637
O         44.24808        72.74278        -1.24514
H         43.44445        73.25167        -1.48802
O         31.59296        68.12915        -1.05436
H         31.54323        67.31380        -1.59935
O         50.54466        66.32620        -3.04410
H         50.27826        65.61123        -3.66804
O         41.50960        67.68858         0.99686
H         41.56874        66.74760         1.26668
O         46.36953        71.27469         2.34881
H         47.18203        71.60158         2.79051
O         47.54034        39.98480         3.92835
H         48.04537        40.73931         4.31949
O         53.92392        63.67731        -3.15299
H         54.00884        62.74607        -3.48763
O         52.72686        59.00832         1.20209
H         52.06059        58.45788         1.66820
O         25.45607        75.13055         2.72501
H         25.48069        74.65656         3.58134
O         37.40474        67.32963        -2.56140
H         38.17592        66.96601        -3.04664
O         57.65123        69.36097         2.30524
H         56.98247        69.91523         2.76428
O         41.35592        69.42885        -2.22679
H         42.12916        68.95208        -2.62150
O         40.20313        49.63950        -2.65997
H         40.06028        50.52421        -3.06360
O         31.87613        52.16019        -2.18803
H         32.24199        52.53714        -3.01450
O         48.97450        69.74621        -2.04197
H         48.66164        70.67547        -2.05646
O         43.37616        40.28298        -0.97686
H         42.62897        40.69029        -1.46517
O         47.55976        37.27256         3.81808
H         47.53334        38.21762         4.11907
O         56.67358        63.59911        -2.89369
H         55.85675        63.98074        -3.30257
O         41.05931        43.63358         2.55350
H         40.14276        43.30025         2.66200
O         50.10805        74.64423        -0.74881
H         50.08257        73.88797        -1.37066
O         44.15923        54.75465        -3.14946
H         44.74326        55.51135        -3.43485
O         42.94489        49.53208        -2.54910
H         42.02375        49.34287        -2.87444
O         43.85357        60.74954         0.53358
H         44.63888        60.27429         0.88074
O         44.35777        51.83528        -2.68624
H         43.79967        51.08223        -2.99983
O         45.02484        66.70271         0.89762
H         45.87869        66.35030         1.22642
O         47.79110        48.61505         2.73879
H         47.00486        48.99752         3.18832
O         38.98946        45.83567        -1.99176
H         39.75952        46.24002        -2.44351
O         40.28552        57.11630        -3.23225
H         41.14544        57.59988        -3.44527
O         46.23290        65.14699        -3.29132
H         47.10002        64.84317        -3.66233
O         47.90478        42.37417         3.47980
H         47.04860        42.61832         3.89128
O         37.83961        45.98699         1.47354
H         36.96493        45.81204         1.87739
O         43.89201        63.61733        -3.29000
H         44.63908        64.21738        -3.55235
O         48.39441        48.12376        -0.81279
H         49.09820        47.66209        -1.31506
O         35.10033        48.03738        -2.62231
H         34.34247        48.55998        -2.95638
O         48.49705        52.78833         2.25161
H         47.69529        52.28677         2.53938
O         45.24076        57.16290        -3.12312
H         44.40276        57.67577        -3.35566
O         37.47793        61.06481         0.58562
H         38.24199        61.40621         1.09392
O         47.67471        61.18237        -3.24866
H         46.80341        61.47757        -3.59071
O         40.67240        70.70200         1.89192
H         41.10621        69.81986         1.82865
O         35.29302        74.59573        -0.56897
H         34.46349        75.10006        -0.70189
O         45.95967        36.07840        -0.64467
H         45.25266        36.58808        -1.09538
O         36.67986        60.78204        -2.96136
H         36.08577        61.51361        -3.25396
O         55.08928        61.25704        -3.13072
H         55.93709        61.66156        -3.43507
O         43.44184        42.23856         3.07726
H         42.59128        42.74375         3.15182
O         62.95647        65.71949        -2.08275
H         62.89875        64.81778        -2.46520
O         41.44674        54.70411        -3.17888
H         42.37825        54.82961        -3.50416
O         51.24796        51.08897         2.65617
H         51.05549        50.21017         3.04707
O         44.59764        47.49118        -1.55531
H         44.20047        48.13735        -2.18911
O         56.23780        67.09839         1.71967
H         56.90172        67.65278         2.20476
O         40.03842        62.83573        -3.13790
H         40.84768        62.42481        -3.51361
O         51.16583        67.12451         1.19966
H         51.98930        67.33620         1.69082
O         29.29141        67.52115         2.55662
H         29.46804        66.58831         2.79712
O         30.54248        60.94108         1.72619
H         29.72691        61.27435         2.15885
O         34.53677        63.15240         1.46107
H         33.89595        63.62788         2.03047
O         48.37709        41.77540        -0.06450
H         49.08817        42.04568        -0.68173
H         22.93779        75.06755         2.06344
H         25.39200        74.73685         0.71246
H         27.91804        75.12142         1.86130
H         30.41955        75.13156         1.82923
H         32.90165        75.15083         1.62889
H         35.40669        75.09161         1.47364
H         37.80939        74.92944         1.78206
H         40.20216        74.20524         2.86405
H         43.00274        74.70291         2.35528
H         45.24017        74.94578         1.63792
H         47.66028        75.03138         1.19987
H         50.06770        75.00650         1.27632
H         52.34275        75.26734         0.65073
H         55.15666        75.07015         0.16066
H         57.47611        75.12743         0.88770
H         59.90901        75.17068         1.08886
H         62.41717        75.17335         1.12437
H         64.85199        75.15201         1.38723
H         67.29196        75.10433         1.84548
H         22.00399        69.22664         1.42712
H         20.78743        71.32570         1.76832
H         20.78927        73.79469         2.08603
H         24.48968        64.89007         0.83030
H         23.21979        67.08538         1.22741
H         26.92465        60.71568        -0.07849
H         25.72658        62.79007         0.43992
H         29.38560        56.45966        -0.62574
H         28.14893        58.58333        -0.47271
H         32.14749        52.29669        -0.15655
H         30.60554        54.32212        -0.91381
H         34.38068        47.93210        -0.66028
H         33.12931        50.00107        -1.25670
H         36.88681        43.55940        -0.21904
H         35.63013        45.68899        -0.68118
H         39.53338        39.38136         0.02296
H         38.22864        41.46024        -0.12556
H         42.13304        35.24741         0.29037
H         40.86243        37.30115         0.10715
H         45.54796        31.94407         0.93599
H         43.40539        33.13826         0.53180
H         47.58960        33.17170         1.60263
H         48.57390        35.26597         2.39212
H         49.83761        37.54252         1.77418
H         51.05631        39.65072         1.85604
H         52.23989        41.80839         1.60717
H         53.41447        43.92485         1.26557
H         54.62557        46.02109         1.09978
H         55.87654        48.12239         1.03863
H         57.12610        50.25372         1.02031
H         58.33939        52.36824         1.09269
H         59.60317        54.54652         0.86544
H         60.82357        56.66686         0.66404
H         62.08037        58.72115         0.42714
H         63.35272        60.79214         0.21926
H         64.59883        62.88718         0.40146
H         65.82592        64.99373         0.64739
H         67.05105        67.11978         0.87615
H         68.23634        69.22566         1.33173
H         69.42948        71.34442         1.83840
H         69.39791        73.81470         2.13810
