         404
 CSIRO Nanostructure Databank - Neutral Graphene Oxide Data Set
C          1.18266         3.21413        -0.73810
C          0.16991         3.99340        -1.26756
C          1.38621         6.13355        -1.86025
C          0.24426         5.32843        -1.77026
C          1.35876         7.59153        -1.85180
C          0.19017         8.30597        -2.14820
C          1.27983        10.43924        -1.69307
C          0.16071         9.70176        -2.09051
C          1.20173        11.89097        -1.52984
C          0.06860        12.66868        -1.88755
C          0.99127        14.70758        -0.91605
C         -0.02494        14.04024        -1.63527
C          1.03936        16.15287        -0.58430
C         -0.12037        16.87042        -0.41006
C          0.97561        19.06594        -0.25588
C         -0.15317        18.29277        -0.20878
C          0.96035        20.55776        -0.19143
C         -0.07885        21.24728         0.58272
C          1.22469        23.34389         0.61463
C          0.03162        22.56822         0.88023
C          1.27522        24.75447         0.92293
C          0.10769        25.47525         1.28074
C          1.36995        27.54862         1.44498
C          0.14577        26.83545         1.50881
C          1.40001        29.00645         1.57424
C          0.27962        29.73133         2.08118
C          1.22439        31.91834         1.45395
C          0.25253        31.10278         2.15897
C          1.17362        33.44935         1.54842
C          0.70097        34.02288         2.86150
C          1.77320        36.17175         2.33355
C          0.88265        35.33159         3.13020
C          1.87763        37.55718         2.53048
C          3.64687         3.41268        -0.09722
C          2.56694         3.54229        -0.93894
C          3.82838         6.18633        -1.37638
C          2.69137         5.54781        -1.81363
C          3.77529         7.61704        -1.23333
C          2.55396         8.31194        -1.50593
C          3.66725        10.44647        -0.96144
C          2.50414         9.74554        -1.37844
C          3.57964        11.88728        -0.47869
C          2.27196        12.55342        -0.89179
C          3.87764        14.96587        -0.74667
C          2.04609        13.87532        -0.50098
C          3.58820        16.31660        -1.06918
C          2.34158        16.88899        -0.45287
C          3.45720        19.21063        -0.83016
C          2.28802        18.40745        -0.36856
C          3.52113        20.59252        -0.64528
C          2.27054        21.32301        -0.35770
C          3.63802        23.37336         0.04820
C          2.37630        22.69861         0.14384
C          3.70091        24.75114         0.37638
C          2.50991        25.45548         0.81693
C          3.88207        27.52801         1.22583
C          2.54266        26.84480         1.12255
C          3.83628        29.04153         1.12982
C          2.58596        29.70456         1.26631
C          3.80177        31.88677         0.93338
C          2.54054        31.14797         1.01334
C          3.73925        33.34540         0.69785
C          2.47346        34.11999         1.08610
C          3.77009        36.24757         0.91317
C          2.66207        35.53764         1.43337
C          3.81368        37.65688         1.06323
C          2.84093        38.29855         1.83469
C          6.04375         3.52476         0.24069
C          4.91636         4.08611        -0.31022
C          6.26182         6.19145        -0.72578
C          5.08591         5.35433        -1.19047
C          6.22059         7.63841        -0.77666
C          4.96664         8.33673        -0.95811
C          6.11520        10.50877        -0.62922
C          4.90149         9.76011        -0.83484
C          6.05889        11.93743        -0.74646
C          4.87081        12.67259        -0.80662
C          6.19336        14.76327        -1.35102
C          4.92073        14.09503        -1.11876
C          6.38146        16.03987        -1.82237
C          4.45764        17.16056        -1.77286
C          5.67534        19.34292        -1.82758
C          4.52581        18.57822        -1.52225
C          5.91263        20.63722        -1.30027
C          4.75023        21.31072        -0.79815
C          6.05869        23.38222        -0.57324
C          4.81456        22.69917        -0.44405
C          6.09149        24.80350        -0.29832
C          4.91125        25.45574         0.12605
C          6.14117        27.70499         0.03760
C          4.87691        26.92058         0.25821
C          6.24680        28.99627         0.74612
C          5.03918        29.75884         1.06184
C          6.24451        32.03598         1.00988
C          5.02363        31.22757         1.08489
C          6.22657        33.41541         0.63889
C          4.98906        34.11906         0.59561
C          6.18582        36.24537         0.31104
C          4.95923        35.51921         0.49943
C          6.18528        37.67391         0.23028
C          4.88247        38.43794         0.33755
C          8.49261         3.50595         0.61770
C          7.34616         4.14763         0.17409
C          8.69073         6.20442        -0.22214
C          7.39491         5.52413        -0.27660
C          8.68061         7.73059        -0.36822
C          7.37642         8.39545        -0.49366
C          8.58878        10.52765        -0.20342
C          7.34938         9.82488        -0.43341
C          8.63385        11.96943        -0.47406
C          7.35167        12.64802        -0.81445
C          8.54266        14.87772        -0.34546
C          7.30604        14.11825        -0.63494
C          8.59900        16.28289        -0.75448
C          7.53285        16.85260        -1.47995
C          8.59279        19.08053        -1.25860
C          7.60488        18.23458        -1.78268
C          8.51261        20.54873        -1.35958
C          7.22054        21.28503        -1.29559
C          8.55684        23.35159        -0.86466
C          7.23932        22.66009        -0.97369
C          8.59349        24.82633        -0.52048
C          7.32351        25.55667        -0.37832
C          8.63490        27.65121        -0.14697
C          7.38345        26.94090        -0.18772
C          8.71902        28.95834         0.40013
C          7.51701        29.40014         1.07083
C          8.72587        32.06193         0.82971
C          7.52058        31.51959         1.29525
C          8.70355        33.43155         0.48245
C          7.45447        34.12444         0.46572
C          8.64239        36.26272         0.09723
C          7.42255        35.54346         0.26290
C          8.62226        37.68486        -0.03536
C          7.36932        38.36357         0.04175
C         10.93725         3.50460         1.13189
C          9.77197         4.16908         0.72636
C         11.00695         6.31445         0.69176
C          9.84219         5.56654         0.42460
C         10.96466         7.75919         0.59380
C          9.83567         8.45222         0.18630
C         10.97667        10.66290         0.44346
C          9.78077         9.89624         0.17597
C         10.98773        12.08657         0.34174
C          9.80400        12.77096        -0.04535
C         10.98741        14.92729         0.10752
C          9.80147        14.16087        -0.09061
C         10.97699        16.33737        -0.09890
C          9.77178        17.02233        -0.49913
C         10.96435        19.15419        -0.53963
C          9.75036        18.42950        -0.71606
C         10.96549        20.49923        -1.07069
C          9.73956        21.22194        -1.36138
C         11.02477        23.51407        -1.38796
C          9.72487        22.74428        -1.64061
C         11.11466        24.85180        -0.66370
C          9.82520        25.60542        -0.70666
C         11.06007        27.77026        -0.64514
C          9.84629        26.98738        -0.52612
C         11.04256        29.15727        -0.32304
C          9.90319        29.75802         0.28567
C         11.21158        32.01064         0.50262
C          9.96181        31.21194         0.73967
C         11.16995        33.48863         0.35322
C          9.93549        34.16035         0.29704
C         11.11266        36.29282         0.02440
C          9.89267        35.57160         0.11083
C         11.08058        37.72924        -0.16874
C          9.83803        38.38848        -0.20305
C         13.37731         3.53689         1.59861
C         12.17675         4.20044         1.27119
C         13.42156         6.32804         1.32006
C         12.19669         5.62961         1.11092
C         13.39909         7.80392         1.34844
C         12.13969         8.53460         1.02947
C         13.36530        10.69611         1.00614
C         12.19105         9.98991         0.75138
C         13.33016        12.14457         1.12722
C         12.14973        12.85151         0.65443
C         13.44938        14.97912         0.45973
C         12.19273        14.25325         0.47022
C         13.44431        16.38312         0.15883
C         12.20550        17.05822        -0.04378
C         13.42292        19.21409        -0.11156
C         12.16835        18.47230        -0.24593
C         13.44610        20.63276        -0.73159
C         12.22759        20.97421        -1.42649
C         13.50402        23.59552        -1.40856
C         12.22880        23.02678        -1.78396
C         13.51870        24.97853        -1.31993
C         12.28769        25.69227        -1.14380
C         13.47059        27.86775        -1.43851
C         12.25109        27.08463        -1.08734
C         13.50400        29.32875        -1.14276
C         12.23562        29.98736        -0.68118
C         13.66503        32.09154        -0.17696
C         12.34334        31.41000        -0.26057
C         13.67788        33.48965         0.16923
C         12.39263        34.19726         0.23632
C         13.57901        36.39851         0.26577
C         12.34262        35.60747         0.13979
C         13.55244        37.80418        -0.22734
C         12.29676        38.43066        -0.36488
C         15.77874         3.56899         2.13912
C         14.61207         4.23567         1.77071
C         15.87349         6.41685         1.77038
C         14.62033         5.67704         1.61289
C         15.92777         7.83601         1.52995
C         14.69236         8.51113         1.12391
C         15.93474        10.75312         1.17409
C         14.66859        10.00955         1.00343
C         15.95358        12.14603         1.01611
C         14.71127        12.93604         1.08629
C         15.93894        14.89452         0.04033
C         14.67186        14.29334         0.59564
C         15.94210        16.40483         0.13280
C         14.70749        17.10103         0.07457
C         15.92829        19.23188        -0.25646
C         14.71444        18.51436        -0.08088
C         15.93009        20.66748        -0.60686
C         14.74703        21.31541        -0.94929
C         16.01673        23.55510        -0.91006
C         14.68982        22.79916        -1.01003
C         16.06254        24.98308        -1.27711
C         14.80231        25.67095        -1.52022
C         16.05190        27.88062        -1.34754
C         14.79022        27.17241        -1.60315
C         16.01116        29.30285        -1.11296
C         14.81917        29.99955        -0.92412
C         16.10256        32.05802        -0.34147
C         14.83406        31.39458        -0.51484
C         16.11314        33.39487         0.18396
C         14.90090        34.17330         0.31564
C         16.08519        36.48451         0.02469
C         14.89645        35.67969         0.44465
C         16.01815        37.84972        -0.46726
C         14.73593        38.48423        -0.52611
C         18.25523         3.58994         1.79469
C         17.06487         4.27370         2.45514
C         18.30501         6.48318         2.16738
C         17.04233         5.74646         2.10783
C         18.35978         7.90550         1.81388
C         17.12643         8.58471         1.55668
C         18.39011        10.71279         1.29622
C         17.14308        10.01104         1.31687
C         18.41402        12.12769         1.06069
C         17.18920        12.85507         0.87635
C         18.41778        14.95583         0.51647
C         17.19613        14.23373         0.55678
C         18.42486        16.38017         0.28498
C         17.16331        17.11644         0.12958
C         18.40633        19.30026        -0.01237
C         17.14498        18.52955        -0.06215
C         18.45522        20.66865        -0.56325
C         17.20472        21.38146        -0.74536
C         18.46740        23.47735        -1.34627
C         17.23367        22.74975        -1.00964
C         18.50338        24.95815        -1.25647
C         17.25806        25.69408        -1.32915
C         18.52769        27.83265        -1.17616
C         17.25609        27.14881        -1.33729
C         18.55935        29.24691        -1.07582
C         17.30376        30.06205        -1.30252
C         18.57111        32.05137        -0.45093
C         17.32259        31.39779        -0.60249
C         18.60869        33.39983         0.02859
C         17.38747        33.90202         0.51413
C         18.55040        36.37963        -0.34680
C         17.33097        35.99453         0.31519
C         18.49515        37.88430        -0.80873
C         17.20602        38.56395        -0.67726
C         19.42306         4.22358         1.59240
C         20.76134         6.39536         1.42880
C         19.61447         5.65042         1.93133
C         20.78109         7.76125         1.43608
C         19.59527         8.55723         1.63662
C         20.83056        10.71976         1.36805
C         19.61618         9.99200         1.43184
C         20.84797        12.08468         1.15207
C         19.64782        12.82597         0.97769
C         20.86240        14.97364         0.65551
C         19.64911        14.25094         0.72859
C         20.86483        16.33312         0.41236
C         19.65865        17.05148         0.24398
C         20.92386        19.19813        -0.36435
C         19.71718        18.53095         0.13263
C         20.90949        20.52334        -0.66623
C         19.68983        21.28790        -0.73802
C         20.96416        23.50915        -0.87870
C         19.77885        22.69875        -1.18555
C         20.93323        24.86515        -0.93042
C         19.71856        25.62649        -1.14729
C         20.95652        27.78983        -0.98296
C         19.73899        27.08388        -1.10075
C         20.98132        29.16956        -0.88370
C         19.78742        29.92396        -0.91512
C         20.99284        32.10445        -0.59654
C         19.81077        31.37102        -0.69583
C         20.99367        33.48926        -0.34145
C         19.82520        34.19007        -0.02931
C         20.96897        36.43064        -0.20156
C         19.82765        35.66906        -0.08094
C         20.93120        37.85113        -0.43759
C         19.79462        38.55672        -0.70549
O         19.18501         6.05526         3.26603
O          1.29158        21.19622        -1.46969
O          2.80328         4.19300        -2.17528
O         19.09599        19.19510         1.28506
O         19.19265        22.93815        -2.50516
O          3.04986        14.46104         0.27909
O         10.94225        31.45833         1.82779
O         14.19223        36.22828         1.60460
O          2.58233        17.56548         0.81873
O          7.51737        14.61090         0.72831
O          8.82001        23.73106         0.51965
O          2.75435        33.79692        -0.30342
O          7.63806        30.36563         2.07199
O          6.64912        18.77994        -2.65812
O         17.44399        35.03761         1.33080
O          8.24825        12.25133        -1.90145
O          5.09758        27.63400        -0.99216
O         13.96133        12.69389         2.31658
O          5.38668        16.60853        -2.65851
O         13.30515        28.84288        -2.52324
O          1.47854        31.51520         0.08266
O         14.76926         9.12590        -0.20883
O         12.30610        21.83044        -2.53255
O         13.26864        20.40287         0.71205
O         11.89733        31.08389        -1.62377
O         18.41357        36.75766        -1.74247
O          9.03373         6.86505        -1.49134
O         15.20869        23.32410         0.28546
O         12.56466         8.30209         2.44752
O         14.81460        26.37380        -2.83330
O         17.32002        30.39480        -2.74225
H         17.10975        29.57483        -3.23866
O          3.55797        11.79981         0.98237
H          3.51138        12.72519         1.31600
O          0.17034        33.84358         0.57217
H          0.49970        33.51555        -0.29541
O         15.93819        14.59625        -1.41372
H         15.13557        15.01319        -1.79425
O         17.27833         4.16132         3.90122
H         18.06253         4.72875         4.10352
O         11.39363        24.57556         0.75166
H         10.58968        24.12214         1.10637
O          4.41570        27.19687         2.55144
H          3.76257        27.48894         3.22145
O          5.09271        39.71959         0.93503
H          5.46605        39.58412         1.82969
O          9.38422        22.90184        -3.04280
H         10.11414        22.51391        -3.57125
O          5.46231         4.84600        -2.50536
H          4.69364         4.32152        -2.82911
H          0.91519         2.34613        -0.11698
H         -0.85664         3.62321        -1.11458
H         -0.73210         5.82258        -1.89396
H         -0.71900         7.76841        -2.45049
H         -0.77621        10.21646        -2.34257
H         -0.76723        12.18829        -2.41467
H         -0.90296        14.59434        -1.99707
H         -1.08563        16.34625        -0.46645
H         -1.13806        18.76797        -0.09347
H         -0.94447        20.67339         0.94373
H         -0.78781        23.04388         1.43633
H         -0.86007        24.96038         1.33905
H         -0.78938        27.36601         1.73163
H         -0.54241        29.16916         2.54669
H         -0.52389        31.59592         2.76030
H          0.05872        33.41356         3.51396
H          0.42315        35.78170         4.02349
H          1.18155        38.06396         3.21388
H          3.54052         2.81388         0.82067
H          2.88375        39.39131         1.94646
H          5.96462         2.55418         0.75537
H          4.50660        38.63688        -0.70682
H          8.42384         2.45936         0.95129
H          7.34800        39.46168        -0.02013
H         10.90776         2.42184         1.32422
H          9.81220        39.48051        -0.33463
H         13.36558         2.44608         1.74350
H         12.25959        39.49523        -0.64183
H         15.74817         2.48041         2.29948
H         14.67895        39.53254        -0.85560
H         18.15766         2.52559         1.53188
H         17.16823        39.65773        -0.78565
H         20.26623         3.69870         1.11614
H         21.61734         5.83293         1.02733
H         21.69722         8.26801         1.10215
H         21.78761        10.19842         1.50506
H         21.82088        12.59227         1.11779
H         21.82333        14.46591         0.80787
H         21.82434        16.86655         0.39366
H         21.84622        18.62011        -0.51235
H         21.84083        21.00223        -1.00004
H         21.88692        23.00450        -0.55805
H         21.86065        25.40593        -0.70036
H         21.91229        27.25145        -0.95941
H         21.95050        29.67308        -0.77081
H         21.96082        31.62162        -0.78855
H         21.95014        34.02374        -0.42215
H         21.96037        35.97565        -0.06703
H         21.88754        38.39150        -0.38129
H         19.82954        39.65363        -0.78109
