         260
 CSIRO Nanostructure Databank - Neutral Graphene Oxide Data Set
C         30.54108        32.06598        -1.29663
C         30.37633        33.19678        -0.80203
C         30.66690        36.53854        -0.04167
C         30.59652        37.83226         0.17178
C         31.09410        40.66591        -2.75437
C         31.17382        41.90250        -2.73489
C         32.71017        29.01994        -0.96747
C         31.79524        29.76255        -1.33926
C         32.75240        31.76828        -0.49379
C         31.63567        31.17067        -1.09909
C         32.78294        33.24409        -0.23999
C         31.45751        34.07960        -0.36840
C         33.17714        36.30538         0.56100
C         31.18868        35.35227         0.34678
C         33.12692        37.70209         0.10188
C         31.86287        38.46716         0.18849
C         33.25611        40.46816        -1.59259
C         32.16007        39.70798        -2.33860
C         33.36303        41.81038        -1.54431
C         32.26844        42.86832        -2.58847
C         33.00089        44.48949        -0.85542
C         32.23319        44.03190        -1.70064
C         35.41197        27.28825        -0.70113
C         35.14592        28.58571        -0.04299
C         33.88106        29.37735        -0.16099
C         35.17110        31.55673         0.49317
C         33.86047        30.91098         0.08243
C         35.26839        33.04522         0.45536
C         33.95868        33.86317         0.55010
C         35.11967        35.85371        -0.73681
C         34.10397        35.35328         0.09258
C         35.39590        37.31492        -0.73856
C         34.20490        38.19717        -0.64863
C         35.45359        40.29233        -0.33111
C         34.44047        39.59416        -1.22030
C         35.35572        41.60193         0.02522
C         34.46496        42.53908        -0.79516
C         34.94917        44.43891         0.94838
C         34.00598        43.81682        -0.01975
C         35.21295        45.85848         1.19396
C         37.86128        27.18990        -0.43911
C         36.52922        26.75088        -0.69518
C         37.80621        28.72773        -0.33366
C         36.48422        29.27789         0.28051
C         37.76984        31.47920         0.49898
C         36.46706        30.75866         0.55983
C         37.76298        32.89042         0.70907
C         36.48036        33.61393         0.71971
C         37.81506        35.74974         0.42383
C         36.59539        35.06102         1.03628
C         37.72913        37.25157         0.62109
C         36.69297        37.99274        -0.17627
C         37.84686        40.22097         0.57746
C         36.68788        39.50513        -0.03946
C         37.71787        41.62334         1.01986
C         36.37095        42.22701         0.94615
C         37.45981        44.39699         1.79903
C         36.22154        43.68528         1.37465
C         37.56331        45.90419         1.93322
C         36.24275        46.43295         1.54449
C         40.24098        24.34413        -0.19625
C         39.23472        25.05252        -0.39317
C         40.29967        27.10727         0.12315
C         38.99833        26.46365        -0.28664
C         40.28532        28.56419         0.50823
C         39.03225        29.35150         0.32160
C         40.24671        31.43141         1.05160
C         38.99142        30.71645         0.56815
C         40.22093        32.89578         0.61057
C         38.95731        33.61314         0.82834
C         40.20954        35.86874         0.95824
C         38.95052        35.07458         1.23524
C         40.20891        37.29243         1.36092
C         38.91727        37.98266         1.21809
C         40.21472        40.22280         1.52543
C         38.94378        39.47469         1.26036
C         40.17706        41.71931         1.48588
C         38.79766        42.28034         1.58964
C         40.43591        44.74006         1.84102
C         38.55699        43.61602         2.08723
C         40.18908        45.99292         1.37351
C         38.87205        46.67556         1.72015
C         39.77571        48.56944         0.41967
C         38.94256        48.03482         1.16064
C         42.87738        24.28608         0.01847
C         41.59955        24.86908        -0.39507
C         42.91211        27.26385        -0.16364
C         41.60408        26.44426        -0.27616
C         42.80151        28.59548         0.57412
C         41.60340        29.25535         0.63237
C         42.85137        31.52132         0.86036
C         41.56023        30.73924         0.67231
C         42.70957        32.97886         1.10671
C         41.52199        33.66752         0.58822
C         42.72316        35.88851         1.11205
C         41.50363        35.16143         0.71975
C         42.65960        37.29711         1.20188
C         41.42278        38.00526         1.33619
C         42.65856        40.15666         1.17865
C         41.48187        39.45887         1.41164
C         42.50796        41.59407         0.72829
C         41.38097        42.38427         1.40296
C         42.68767        44.50420         0.71225
C         41.57759        43.86171         1.48948
C         42.39088        45.81752         0.03529
C         41.31377        46.70377         0.66176
C         42.11766        48.43828        -0.86936
C         41.17290        48.17927         0.22079
C         43.86297        25.09813         0.08304
C         45.53457        27.06739         0.21756
C         44.17057        26.42662         0.20787
C         45.44199        28.61849         0.44632
C         44.08906        29.31828         0.80185
C         45.39637        31.37166         1.12998
C         44.12757        30.77440         1.00260
C         45.56834        32.68690         1.71487
C         43.65422        33.75074         1.75570
C         45.15927        35.80953         1.76955
C         43.84388        35.15773         1.56184
C         45.21142        37.25273         1.31696
C         43.92471        38.01675         1.12000
C         45.13031        40.14832         0.80643
C         43.92877        39.48924         1.07749
C         45.05832        41.52789         0.27170
C         43.81601        42.32209         0.49521
C         44.90948        44.29359        -0.53103
C         43.78105        43.64528         0.18551
C         44.69588        45.64432        -1.19077
C         43.38230        46.35324        -0.99638
C         43.14678        47.80076        -1.14335
C         47.16278        27.72872        -1.49325
C         46.33335        26.93883        -1.04034
C         47.19676        29.22071        -1.45397
C         46.46730        29.53796        -0.10454
C         47.46503        31.91695        -0.22702
C         46.49782        30.82944         0.35540
C         47.85157        32.80364         1.00398
C         46.60424        33.55133         1.46021
C         47.67321        35.82828         1.13675
C         46.51720        35.01565         1.69262
C         47.65554        37.31992         1.11986
C         46.44830        38.12227         1.64077
C         47.62360        40.15310         0.70524
C         46.40635        39.48738         0.91729
C         47.66912        41.59066         0.27327
C         46.34089        42.24422        -0.03495
C         47.53335        44.45041        -0.68187
C         46.29003        43.73680        -0.21532
C         47.11480        45.68895        -1.36837
C         46.02349        46.27652        -1.33320
C         49.89896        29.34020        -1.69241
C         48.55138        29.92151        -1.53197
C         50.11189        31.81895        -0.62223
C         48.70535        31.30164        -0.92681
C         50.30793        33.00737         0.28346
C         49.08593        33.67504         0.86769
C         50.19058        35.99838         0.61049
C         49.01533        35.16039         1.01823
C         50.17064        37.33574         0.95814
C         48.93417        38.07552         1.14257
C         50.74019        40.61226         0.06604
C         48.86250        39.45914         1.00476
C         50.06229        41.41294        -0.86039
C         48.88383        42.24008        -0.38412
C         48.91670        43.38233        -2.53997
C         48.78908        43.68031        -1.03660
C         51.02086        29.85753        -1.69077
C         52.47812        31.99610        -1.07154
C         51.24502        31.35499        -1.63813
C         52.55803        33.09561        -0.52157
C         51.60383        33.90084         0.30822
C         52.21545        36.25303        -0.67585
C         51.18001        35.24418        -0.31883
C         52.24228        37.49196        -0.83911
C         52.04803        38.57494         0.04513
C         52.56850        40.46288        -1.46169
C         52.21895        40.06507        -0.08050
C         51.86881        41.01251        -2.32884
C         50.61463        41.67280        -2.17416
C         49.91725        42.68579        -2.86127
O         47.12472        44.48032         0.71135
O         33.75301        43.75286         1.38581
O         32.16578        35.79526         1.37394
O         45.95029        35.48993         2.93832
O         35.95322        35.59744         1.93522
O         44.61851        44.42735        -1.96786
O         37.81925        40.02002        -0.88379
O         48.65199        42.35611         1.03053
O         40.89743        33.20687        -0.64612
O         35.86215        42.59439         2.27216
O         32.49052        34.09251        -1.40286
O         39.59674        44.19648         2.81743
O         46.74684        32.65279        -1.13884
O         49.35885        34.31177         2.17144
O         50.07680        40.17761         1.19236
O         41.84171        47.83305         1.44388
O         42.27041        31.23143        -0.48519
O         45.02544        28.75250         1.82166
O         38.30229        46.46365         3.02035
O         47.37860        36.56554        -0.10233
O         45.61110        41.57595        -1.10964
O         36.53297        37.63992        -1.57720
O         51.29530        38.19404         1.12169
O         41.61272        25.74074        -1.55544
O         40.75875        35.75472        -0.40883
O         50.50242        31.65100         0.77024
O         40.23118        27.48027         1.53281
O         37.74421        37.55669         2.04507
O         36.53274        29.73648         1.63744
O         35.06551        39.35792        -2.56538
O         39.28469        39.85129         2.62129
O         34.17865        28.60634         1.01226
O         46.55822        38.38093         2.98157
O         42.21994        45.58932        -1.40290
O         32.21195        38.52721        -2.54610
O         48.48714        31.11380        -2.35704
O         44.55428        33.09594         2.58918
O         44.74541        37.44417        -0.01764
O         34.14758        31.18531         1.47564
O         42.76813        44.42666         2.17282
O         48.16034        31.86388         2.05643
H         48.63512        32.35078         2.76554
O         35.85067        40.52432        -2.90327
H         36.76408        40.26869        -2.60359
O         40.22943        31.42092         2.50010
H         39.31210        31.57532         2.81135
O         50.43843        34.90351        -1.48879
H         50.20149        35.71317        -1.98705
O         37.75133        29.22161        -1.70331
H         38.54101        28.90920        -2.19302
O         41.98961        41.44924        -0.65080
H         42.73061        41.17419        -1.23508
O         46.28830        26.52080         1.29359
H         46.05220        27.01202         2.11116
O         33.62220        33.85897         1.93485
H         34.33655        34.32364         2.42805
O         38.05656        35.43053        -0.95068
H         39.03633        35.38225        -1.09710
O         38.69257        35.12006         2.64651
H         38.24628        35.97731         2.86261
O         49.91789        44.39176        -0.59011
H         49.77972        45.35077        -0.73215
O         43.24649        27.69807        -1.50589
H         43.03827        26.95713        -2.12273
O         50.98076        31.89207        -2.89609
H         51.59608        31.51566        -3.55652
O         46.36161        29.72700        -2.47783
H         46.68377        30.63515        -2.70305
O         31.96567        39.77230         0.42728
H         31.07684        40.18649         0.43788
O         52.03660        34.11779         1.62465
H         52.15726        33.25010         2.06323
O         35.38633        43.06340        -1.78151
H         35.57839        42.33429        -2.42430
O         32.91493        43.12126        -3.76806
H         32.78619        42.38598        -4.39990
O         53.08532        40.60630         0.90299
H         52.81799        40.27833         1.78608
O         35.73045        35.08395        -1.62312
H         36.44159        35.59763        -2.07921
