         334
 CSIRO Nanostructure Databank - Neutral Graphene Oxide Data Set
C         30.42343        57.25537        -0.75059
C         30.38122        58.63862        -0.68919
C         29.21322        59.40202        -0.95680
C         30.42602        61.51391        -0.67851
C         29.24437        60.79550        -0.92945
C         32.90942        52.96629        -0.62779
C         32.88436        54.38388        -0.54519
C         31.66223        55.11006        -0.57374
C         32.89614        57.21900        -0.52405
C         31.64874        56.51011        -0.56774
C         32.89155        58.72251        -0.67216
C         31.60100        59.35743        -0.15731
C         32.85080        61.53002        -0.22502
C         31.63683        60.85268        -0.38929
C         35.38589        48.66417        -0.73789
C         35.33346        50.06973        -0.73730
C         34.15210        50.82376        -0.83892
C         35.34844        53.00437        -0.63041
C         34.12356        52.25861        -0.69970
C         35.35939        54.39538        -0.53828
C         34.11981        55.11095        -0.51148
C         35.39924        57.25987        -0.86060
C         34.10565        56.53641        -0.52544
C         35.38328        58.76572        -0.55954
C         34.11378        59.34655         0.02893
C         35.28269        61.55908         0.17189
C         34.09774        60.86593        -0.02658
C         37.81013        44.35251        -0.10127
C         37.79867        45.78170        -0.21514
C         36.59953        46.50372        -0.41647
C         37.84944        48.59254        -0.40763
C         36.59435        47.91256        -0.51370
C         37.89097        50.07593        -0.68195
C         36.58116        50.83310        -0.36162
C         37.88991        52.98926        -0.49258
C         36.61787        52.26169        -0.96484
C         37.78281        54.40524        -0.07710
C         36.61667        55.12215        -0.31391
C         37.79880        57.27668        -0.05217
C         36.62929        56.56736        -0.30416
C         37.87586        58.72574        -0.02103
C         36.63623        59.49960        -0.23360
C         37.71202        61.52483         0.67702
C         36.56352        60.89456         0.28342
C         40.24508        40.05273        -0.02028
C         40.23160        41.42661         0.16578
C         38.91180        42.15137         0.30875
C         40.24033        44.34072         0.15589
C         38.98234        43.64807         0.07837
C         40.26861        45.75740         0.07612
C         39.04349        46.47745        -0.11785
C         40.36382        48.58915        -0.27151
C         39.04874        47.89484        -0.24956
C         40.39220        50.08611        -0.20225
C         39.05221        50.71505         0.10949
C         40.25021        52.85258         0.64422
C         39.10121        52.21521        -0.07731
C         40.20489        54.32992         0.85068
C         38.92234        55.05981         0.57119
C         40.27805        57.23045         0.52372
C         38.95810        56.57097         0.52265
C         40.28347        58.65803         0.48474
C         39.01793        59.36800         0.40793
C         40.26652        61.52459         0.70584
C         38.98797        60.77359         0.96608
C         42.88316        35.89625        -0.83424
C         42.77357        37.26166        -0.40662
C         41.53538        37.92747        -0.31765
C         42.69116        40.04759         0.09892
C         41.47002        39.31911        -0.06795
C         42.67147        41.46274         0.17683
C         41.46056        42.15586         0.24511
C         42.66958        44.30863         0.51597
C         41.46597        43.61826         0.31796
C         42.71486        45.72828         0.49144
C         41.52038        46.45346         0.22641
C         42.77308        48.58158         0.37548
C         41.58250        47.87053         0.12213
C         42.78617        50.03149         0.45830
C         41.60323        50.77211         0.28926
C         42.73644        52.88780         0.82689
C         41.56216        52.16578         0.56339
C         42.71193        54.34757         0.91298
C         41.48052        55.06819         0.84558
C         42.75133        57.16013         0.45418
C         41.46445        56.47318         0.64428
C         42.75199        58.68909         0.40371
C         41.47683        59.39151         0.55321
C         42.74270        61.51178         0.64340
C         41.47981        60.83973         0.63868
C         45.41443        33.37259        -1.83702
C         44.22426        33.93145        -1.54197
C         45.33703        36.02130        -0.80432
C         44.11641        35.30637        -1.07125
C         45.26651        37.31456        -0.21371
C         43.97903        37.97217        -0.08885
C         45.15469        40.08399         0.46235
C         43.92733        39.34827         0.18324
C         45.18904        41.43710         0.37249
C         43.96052        42.23235         0.00730
C         45.20244        44.29596         0.76877
C         43.91101        43.51513         0.84806
C         45.18507        45.71238         0.83755
C         43.95508        46.43832         0.67194
C         45.20956        48.55878         0.90110
C         43.98122        47.85422         0.64111
C         45.20537        50.01637         0.99170
C         43.98378        50.73112         0.81513
C         45.19675        52.84527         1.12540
C         43.97338        52.15757         0.91267
C         45.20783        54.31882         1.01127
C         43.93431        55.05836         0.98766
C         45.17010        57.22328         1.03783
C         43.99132        56.47937         0.86553
C         45.18954        58.65399         0.91006
C         44.00523        59.38415         0.70703
C         45.21738        61.50309         0.78021
C         43.97852        60.82159         0.72557
C         46.71276        34.12773        -1.79977
C         47.77470        36.16283        -0.78704
C         46.61677        35.46338        -1.09606
C         47.72750        37.42102        -0.09879
C         46.44424        37.98343         0.14870
C         47.63481        40.02233         0.99825
C         46.33579        39.27188         0.92788
C         47.68123        41.39881         0.84334
C         46.48991        42.17161         0.35026
C         47.63713        44.31153         0.99170
C         46.42567        43.61049         0.79054
C         47.64497        45.71001         1.11197
C         46.40897        46.42306         1.00836
C         47.60206        48.53160         1.69525
C         46.39230        47.84164         1.10134
C         47.71104        49.97907         1.17707
C         46.39750        50.72408         1.23996
C         47.64250        52.85996         1.67582
C         46.39497        52.13540         1.29553
C         47.65519        54.34170         1.77936
C         46.46088        55.08612         1.27197
C         47.71092        57.22928         1.33156
C         46.38734        56.55164         1.63823
C         47.67540        58.66990         1.08764
C         46.45172        59.36147         0.98545
C         47.67236        61.49177         0.74028
C         46.44390        60.79895         0.84035
C         48.89458        38.04505         0.39105
C         50.12929        39.99824         1.13865
C         48.86343        39.21987         1.34426
C         50.14379        41.38372         1.00482
C         48.90400        42.10198         0.97328
C         50.08941        44.27073         0.51307
C         48.93558        43.58095         1.23648
C         50.15125        45.72970         0.92787
C         48.90951        46.43633         1.20799
C         50.14354        48.56547         1.38609
C         48.91629        47.81062         1.43463
C         50.17280        49.95593         1.41721
C         48.91769        50.69600         1.80872
C         50.09705        52.85244         1.20267
C         48.93882        52.17089         1.51834
C         50.12178        54.31635         1.12084
C         48.99686        55.07923         1.83569
C         50.22517        57.24069         1.34024
C         48.88873        56.54253         1.43065
C         50.13814        58.68300         0.90828
C         48.90595        59.37799         0.92858
C         50.14183        61.47698         0.58321
C         48.89499        60.79977         0.73196
C         51.37362        42.13943         0.90319
C         52.59516        44.25497         0.65461
C         51.39212        43.52136         0.73468
C         52.60029        45.67301         0.66449
C         51.35311        46.38665         0.92605
C         52.58910        48.57257         0.76650
C         51.45407        47.81418         1.40498
C         52.54171        49.95822         0.63865
C         51.34061        50.70582         1.01347
C         52.38179        52.80933         0.13652
C         51.29537        52.09198         0.87268
C         52.46903        54.28678         0.35338
C         51.25156        54.99003         0.69856
C         52.52854        57.17487         0.36091
C         51.18285        56.47616         0.40694
C         52.56565        58.58730         0.41546
C         51.33597        59.35088         0.62569
C         52.62961        61.54443         0.49206
C         51.33209        60.77760         0.52256
C         53.77553        46.40768         0.47270
C         54.91929        48.53607         0.01378
C         53.77534        47.83816         0.41921
C         54.91334        49.95057        -0.08739
C         53.70263        50.67527         0.19019
C         54.85300        52.79356        -0.25506
C         53.68102        52.08438         0.06796
C         54.87892        54.23761        -0.21818
C         53.65524        54.96765         0.10488
C         54.93149        57.11844        -0.06291
C         53.70529        56.42952         0.13987
C         54.96142        58.51771        -0.08250
C         53.78650        59.26902         0.16467
C         54.95369        61.36967        -0.34113
C         53.83014        60.72046         0.09816
C         56.06458        50.65828        -0.48208
C         57.22037        52.77808        -0.93286
C         56.06287        52.06589        -0.54465
C         57.23694        54.18473        -0.92135
C         56.07531        54.90554        -0.45885
C         57.27705        57.06003        -0.98129
C         56.24078        56.36481        -0.12127
C         57.28697        58.44211        -1.05617
C         56.28747        59.22926        -0.23974
C         57.17672        61.28225        -1.36623
C         56.15181        60.66143        -0.70048
C         58.35657        54.88696        -1.42747
C         59.40113        56.97179        -2.21735
C         58.35495        56.30021        -1.55545
C         59.40119        58.37889        -2.33550
C         58.33261        59.12678        -1.74948
C         59.36572        61.19780        -2.53432
C         58.31881        60.55115        -1.86617
C         60.45077        59.07800        -3.00109
C         60.42814        60.45857        -3.08868
O         40.55996        49.43469        -1.49565
O         38.57410        55.86168         1.75562
O         42.83855        57.86907        -0.82313
O         47.42437        53.56135         2.99523
O         39.99909        53.38666         1.97770
O         36.05816        59.49697        -1.61872
O         51.82084        52.72189        -1.37993
O         39.00782        52.72292        -1.44036
O         46.77695        42.36560        -1.17523
O         46.13071        54.78081        -0.10022
O         46.98135        41.05711        -1.74549
H         47.96589        40.99241        -1.80542
O         38.12893        50.20611        -2.09956
H         39.03033        49.83335        -2.27996
O         38.91519        50.44605         1.52266
H         38.09561        50.89905         1.83811
O         49.42010        55.07392         3.23563
H         48.80410        54.45463         3.70623
O         47.33397        48.48062         3.11835
H         47.93021        49.12970         3.56443
O         34.16449        58.93315         1.41487
H         33.25983        59.05452         1.79430
O         37.90997        41.55761        -0.52592
H         38.19166        41.65923        -1.45803
O         46.02914        38.85314         2.31103
H         45.20692        38.31776         2.27338
O         46.21654        56.59368         3.08735
H         46.27952        57.52942         3.37240
O         50.61486        56.57749        -0.93133
H         51.11323        55.97133        -1.52011
O         48.81118        50.62420         3.27046
H         49.59274        51.07812         3.65041
O         51.80904        47.71701         2.83729
H         51.16915        47.09967         3.25265
O         48.03726        49.90523        -0.23770
H         47.27246        49.51266        -0.70937
O         50.82387        57.28031         2.66237
H         50.49099        56.50282         3.17416
O         56.85761        59.28090         1.12496
H         57.69793        59.78474         1.06940
O         48.79713        38.75914         2.73562
H         47.84739        38.57453         2.92728
O         49.23190        43.71908         2.66121
H         48.57602        43.19075         3.16278
O         52.51773        62.71422        -0.32914
H         52.31320        62.42697        -1.24242
O         35.47314        57.14283        -2.31588
H         36.06831        57.87027        -2.61954
O         52.73638        53.42688        -2.21884
H         53.38127        52.73124        -2.49805
O         49.79560        44.21784        -0.90745
H         50.52027        44.67582        -1.38205
O         31.54022        59.16902         1.29643
H         30.71389        59.59172         1.61248
O         32.97709        59.02193        -2.08273
H         33.73369        58.51350        -2.45550
O         36.45749        51.04888         1.07852
H         35.99434        50.27648         1.46621
O         38.96663        60.56655         2.43966
H         38.20777        59.97747         2.64148
O         44.03716        42.60140        -1.39354
H         44.98791        42.57259        -1.66377
O         36.60437        52.24035        -2.39759
H         37.46611        51.85765        -2.69153
O         43.79065        43.08269         2.23817
H         43.71717        43.88393         2.79802
O         56.78044        56.40319         1.24539
H         56.86248        57.36046         1.48454
O         47.74952        33.31937        -1.22158
H         47.51502        33.14742        -0.28690
H         29.50885        56.69537        -1.00220
H         28.28399        58.88212        -1.23332
H         30.41737        62.61123        -0.75685
H         28.32596        61.35364        -1.16094
H         31.95656        52.41725        -0.67087
H         30.71290        54.55796        -0.64374
H         32.85604        62.62934        -0.30660
H         34.45373        48.10031        -0.90038
H         33.19515        50.30047        -0.99371
H         35.25804        62.65697         0.26165
H         36.85738        43.80456        -0.15203
H         35.65193        45.95143        -0.50615
H         37.66626        62.57541         1.00553
H         39.29030        39.51757        -0.13219
H         38.55943        41.99776         1.36970
H         40.25959        62.62383         0.75601
H         41.96288        35.32867        -1.03911
H         40.60658        37.36826        -0.50597
H         42.75293        62.61200         0.65708
H         45.46364        32.32436        -2.16835
H         43.29767        33.34345        -1.62917
H         45.23351        62.60168         0.72312
H         47.02908        34.31356        -2.86691
H         48.75211        35.70735        -1.00444
H         47.66556        62.58523         0.61955
H         49.87227        37.66540         0.05381
H         51.08310        39.45052         1.18133
H         50.15484        62.57429         0.50904
H         52.32730        41.59481         0.98219
H         53.55699        43.71943         0.64076
H         52.81348        61.92056         1.53980
H         54.71549        45.87437         0.26607
H         55.83808        47.98346        -0.23155
H         54.92075        62.46108        -0.48176
H         56.98652        50.10759        -0.71921
H         58.11947        52.22505        -1.24177
H         57.09886        62.35426        -1.60546
H         59.21413        54.31561        -1.81305
H         60.23128        56.39072        -2.64580
H         59.35325        62.29293        -2.63014
H         61.27896        58.50569        -3.44300
H         61.24134        60.98829        -3.60454
