         404
 CSIRO Nanostructure Databank - Neutral Graphene Oxide Data Set
C          1.81913         1.47713         0.66942
C          1.70424         2.83926         0.34004
C          3.05862         0.97657         1.01055
C          2.81462         3.67447         0.43975
C          1.57544         6.63684         1.23856
C          1.62629         7.84877         1.92281
C          2.75438         5.96237         0.92621
C          2.87346         8.44614         2.18785
C          1.76139        10.59884         2.91698
C          1.78601        11.98396         3.04627
C          2.90620         9.88378         2.49598
C          2.91111        12.74236         2.66883
C          1.99766        14.90306         3.56984
C          2.10334        16.27370         3.74853
C          2.97290        14.18849         2.83417
C          3.19059        16.99223         3.20593
C          3.32110        18.41180         3.41502
C          4.20509         1.82199         1.06349
C          4.09462         3.24144         0.86507
C          5.47036         1.21937         1.21978
C          5.26667         4.10329         1.04243
C          4.04046         6.37474         1.39088
C          4.06843         7.71635         1.93640
C          5.21911         5.54371         1.28971
C          5.34207         8.42719         2.09950
C          4.06522        10.62821         2.19875
C          4.06269        12.04422         2.18873
C          5.35155         9.94688         2.05386
C          5.20180        12.73062         1.66331
C          4.05455        14.90199         2.26346
C          4.17364        16.29657         2.45008
C          5.05269        14.17567         1.44829
C          5.30207        17.02396         1.89613
C          4.38101        19.10747         2.91271
C          5.41059        18.45655         2.14125
C          6.63091         1.99774         1.15680
C          6.51561         3.42211         1.09847
C          7.90597         1.33070         1.10294
C          7.78122         4.16187         1.44151
C          6.51830         6.24042         1.51918
C          6.60103         7.72597         1.72519
C          7.74892         5.60400         1.01346
C          7.72695         8.49460         1.14969
C          6.49726        10.65036         1.46126
C          6.38336        12.05549         1.24834
C          7.65550         9.92669         1.04853
C          7.51373        12.78833         0.70718
C          6.20780        14.93969         0.83820
C          6.27524        16.38155         1.15321
C          7.46550        14.20491         0.52638
C          7.32657        17.15041         0.47335
C          6.49975        19.17032         1.67257
C          7.52917        18.56411         0.87400
C          9.11907         2.00050         0.98096
C          9.11113         3.47246         1.14212
C         10.27894         1.34992         0.48770
C         10.28868         4.24774         0.64763
C          8.84016         6.33101         0.62560
C          8.83395         7.79316         0.62445
C          9.97741         5.57622        -0.02949
C          9.96755         8.51487         0.14051
C          8.76606        10.65079         0.50556
C          8.71180        12.08555         0.38378
C          9.93519         9.94117         0.10174
C          9.86706        12.81420        -0.04803
C          8.59113        14.91621         0.07503
C          8.46844        16.37769        -0.17825
C          9.82825        14.23901        -0.18332
C          9.68129        17.16080        -0.57721
C          8.68880        19.23871         0.57968
C          9.77925        18.64568        -0.20561
C         11.40728         2.04073        -0.00001
C         11.58759         3.52061         0.27306
C         12.46015         1.37747        -0.62953
C         12.40817         4.23368        -0.77816
C         11.20949         6.38773        -0.30364
C         11.15707         7.80368        -0.28716
C         12.33632         5.69127        -0.79210
C         12.30259         8.54013        -0.70228
C         11.08997        10.68217        -0.33216
C         11.07719        12.11447        -0.36078
C         12.26863         9.98970        -0.70072
C         12.26335        12.84240        -0.67845
C         11.00573        14.94824        -0.59757
C         10.93991        16.40237        -0.87331
C         12.24100        14.28112        -0.77530
C         12.23182        17.18644        -0.94384
C         11.10881        19.26506        -0.13593
C         12.26481        18.61370        -0.53059
C         13.55832         2.08385        -1.22991
C         13.42633         3.53965        -1.39271
C         14.68416         1.38946        -1.64428
C         14.47879         4.26790        -2.13830
C         13.44720         6.44235        -1.25445
C         13.44119         7.83487        -1.16676
C         14.55756         5.75999        -1.95572
C         14.60693         8.59440        -1.74594
C         13.44742        10.72831        -0.96980
C         13.48006        12.13385        -0.90234
C         14.69913         9.96471        -1.11920
C         14.72388        12.85641        -1.13917
C         13.47127        15.00307        -1.03241
C         13.50510        16.43818        -0.96225
C         14.71270        14.30907        -1.20682
C         14.68836        17.16018        -1.07044
C         13.53049        19.25905        -0.48017
C         14.72542        18.58461        -0.81839
C         15.84451         2.02264        -2.29678
C         15.73644         3.53811        -2.51705
C         17.18966         1.45053        -2.22987
C         17.00342         4.27625        -2.53779
C         15.88423         6.42921        -1.96679
C         15.91848         7.83568        -1.71195
C         17.04092         5.67131        -2.20183
C         17.12497         8.54019        -1.69231
C         15.97648        10.71967        -1.25269
C         15.90974        12.17829        -1.35423
C         17.20511         9.97933        -1.61070
C         17.13231        12.88050        -1.78131
C         15.91926        15.01408        -1.43480
C         15.88476        16.49726        -1.68091
C         17.16206        14.36111        -1.69422
C         17.19479        17.19090        -1.43050
C         15.96769        19.25396        -0.83204
C         17.20047        18.57956        -1.09376
C         18.33980         2.15604        -2.62129
C         18.19452         3.59709        -2.83281
C         19.61288         1.48905        -2.47340
C         19.33595         4.43001        -3.12633
C         18.36143         6.29211        -1.99049
C         18.37636         7.78490        -1.76154
C         19.54966         5.67395        -2.60779
C         19.63394         8.49429        -2.01831
C         18.42511        10.63726        -1.53861
C         18.44315        12.12430        -1.77064
C         19.63799         9.84705        -1.62464
C         19.65943        12.98109        -1.76743
C         18.34937        15.07430        -1.91590
C         18.39305        16.50275        -1.69168
C         19.60653        14.36002        -2.39824
C         19.64366        17.20330        -1.65350
C         18.43721        19.24553        -0.98436
C         19.65807        18.57740        -1.24918
C         20.93267         2.03202        -2.43508
C         21.20996         3.35751        -2.91362
C         22.02870         1.37532        -1.82297
C         22.22186         4.17515        -2.41188
C         20.88430         6.40358        -2.83678
C         20.84670         7.81856        -2.27146
C         22.16401         5.63077        -2.41192
C         22.05186         8.53976        -2.17811
C         20.88637        10.40724        -1.31248
C         20.85722        12.55058        -1.29147
C         22.08504         9.90234        -1.77460
C         22.14957        13.04652        -1.69538
C         20.90637        15.11902        -2.13975
C         20.88905        16.54055        -1.94785
C         22.12720        14.42863        -2.05494
C         22.10862        17.24741        -1.81067
C         20.90274        19.23433        -1.04669
C         22.12170        18.58099        -1.28058
C         23.26433         2.05539        -1.61523
C         23.34622         3.48529        -1.83471
C         24.40660         1.38981        -1.12287
C         24.53645         4.18847        -1.58760
C         23.29356         6.31702        -1.99825
C         23.26352         7.78259        -1.80932
C         24.54067         5.63985        -1.66997
C         24.46557         8.55497        -1.34710
C         23.32922        10.74123        -2.01309
C         23.31788        12.25735        -1.72967
C         24.57767        10.01839        -1.56640
C         24.57538        12.92205        -1.92186
C         23.41106        15.08616        -2.29257
C         23.37735        16.62513        -2.20277
C         24.66620        14.32977        -2.06332
C         24.67420        17.31753        -1.92420
C         23.36974        19.19490        -0.93869
C         24.60552        18.57773        -1.15100
C         25.62740         2.07525        -0.89621
C         25.70311         3.49320        -1.14045
C         26.79706         1.40304        -0.47386
C         26.92115         4.18773        -0.94215
C         25.70163         6.33503        -1.36582
C         25.72226         7.78841        -1.11663
C         27.01858         5.60889        -1.42620
C         27.01392         8.54250        -1.07022
C         25.79602        10.66675        -1.61699
C         25.81039        12.10882        -1.99527
C         27.04685         9.98809        -1.37435
C         27.15104        12.83739        -1.92924
C         25.92162        15.01888        -1.95357
C         25.96498        16.51368        -1.88160
C         27.11637        14.30277        -1.75423
C         27.17242        17.16281        -1.30556
C         25.79532        19.09329        -0.60477
C         27.05684        18.45935        -0.69852
C         28.00238         2.09904        -0.25432
C         28.06407         3.52199        -0.46938
C         29.19157         1.42158         0.11689
C         29.28948         4.23275        -0.18544
C         28.21450         6.37149        -0.90149
C         28.27100         7.76751        -1.03199
C         29.35551         5.65636        -0.45169
C         29.47370         8.49821        -0.84780
C         28.28696        10.65758        -1.33917
C         28.35822        12.08123        -1.52475
C         29.50015         9.92957        -1.00910
C         29.56724        12.77659        -1.37387
C         28.36753        14.96746        -1.52538
C         28.39162        16.41913        -1.39303
C         29.56203        14.21584        -1.48076
C         29.64626        17.06792        -1.41723
C         28.12271        19.08313         0.06508
C         29.45799        18.99517        -0.27610
C         30.37142         2.09469         0.46916
C         30.38409         3.55830         0.40412
C         31.54012         1.27712         0.68337
C         31.54598         4.34993         0.75241
C         30.56089         6.38228        -0.22544
C         30.64203         7.78662        -0.46922
C         31.68404         5.70445         0.32836
C         31.86481         8.49686        -0.24272
C         30.72163        10.62084        -0.83968
C         30.78422        12.05038        -1.02508
C         31.91754         9.90939        -0.46908
C         32.00288        12.70922        -0.81122
C         30.85204        14.91274        -1.53224
C         30.88355        16.37385        -1.37982
C         32.13006        14.13189        -1.15317
C         32.09752        17.03526        -1.13760
C         30.59440        19.37087         0.48618
C         31.91883        19.07050         0.11577
C         32.63242         1.69902         1.45536
C         32.58451         3.84056         1.55696
C         33.98146         1.33205         1.45649
C         33.87459         4.40446         1.63478
C         32.89147         6.41671         0.59946
C         32.99747         7.81475         0.26704
C         33.97759         5.75399         1.21553
C         34.23208         8.51815         0.45426
C         33.14743        10.59589        -0.27601
C         33.19953        12.02366        -0.40376
C         34.32610         9.90437         0.12986
C         34.40096        12.71795        -0.13764
C         33.24602        14.89603        -0.63504
C         33.27833        16.29402        -0.77719
C         34.30264        14.18945         0.17081
C         34.46618        16.99087        -0.38303
C         33.03178        19.39359         0.91408
C         34.35484        18.97910         0.61296
C         35.04419         2.16066         1.97515
C         35.03402         3.61479         2.04074
C         36.25007         1.49065         2.27326
C         36.25951         4.29123         2.24860
C         35.15703         6.52782         1.59995
C         35.35321         7.86442         1.02839
C         36.33247         5.77031         2.18645
C         36.61177         8.49384         1.10103
C         35.58738        10.58143         0.24041
C         35.64867        12.03112         0.05443
C         36.72793         9.84584         0.63633
C         36.87631        12.74952         0.10479
C         35.62150        14.91050         0.12870
C         35.62316        16.33382         0.09085
C         36.84521        14.21220         0.06751
C         36.82648        17.07626         0.40742
C         35.49730        19.04777         1.38332
C         36.73638        18.38266         1.01422
C         37.43354         2.16693         2.60790
C         37.46149         3.59069         2.52783
C         38.61785         1.45769         3.00329
C         38.69473         4.29152         2.76480
C         37.64483         6.43875         2.08226
C         37.75130         7.73514         1.59433
C         38.80366         5.69449         2.52918
C         39.10152         8.34128         1.55361
C         38.05379        10.47683         0.49052
C         38.14545        11.95985         0.17387
C         39.25889         9.76715         1.06173
C         39.48149        12.58144         0.46827
C         37.97232        15.05328        -0.21612
C         38.08146        16.42977         0.17830
C         39.82870        13.78994        -0.12819
C         39.33726        17.17110         0.41132
C         37.92785        18.96921         1.42043
C         39.19867        18.43644         1.08616
C         39.76530         2.13322         3.31620
C         39.83806         3.56061         3.19283
C         41.04058         4.25612         3.47199
C         40.02935         6.36109         2.77550
C         40.14551         7.76687         2.43134
C         41.12884         5.62287         3.28335
C         41.22490         8.54838         2.78339
C         40.37796        10.55193         1.62547
C         40.51130        11.95060         1.22527
C         41.31502         9.91878         2.41656
C         41.72540        12.64011         1.45707
C         41.02100        14.47264         0.10747
C         40.70155        16.81781         0.12577
C         41.99565        13.90469         0.92812
C         41.77723        17.64778         0.44794
C         40.31418        19.24415         1.44253
C         41.59847        18.86603         1.11742
O         41.14244        15.68219        -0.59014
O          5.05508        14.55282         0.01502
O          7.31511        16.79961        -0.95813
O          2.63143         4.97150        -0.04500
O         23.46793         8.13660        -0.35495
O         10.08646         4.10584         2.07780
O         25.55678        17.28454        -3.08036
O         23.37745        15.93947        -3.47832
O         26.58459        12.37199        -3.21035
O          5.58606         9.19004         3.31746
O         38.27258        10.95144        -0.88641
O         32.31373         2.74139         2.35928
O         18.55204         6.82584        -0.63939
O         39.63810         8.63802         0.21032
O          6.86537         6.79893         2.84793
O         14.07136         5.17319        -3.22355
O         11.48747        16.82814        -2.16359
O         20.35759         3.85853        -3.90361
O         20.88390        11.47069        -0.41580
O         17.69318        12.36383        -3.04947
O         15.52793        10.13779         0.06565
O         31.77316        14.42000        -2.55187
O         34.52232        18.33478        -0.65046
O         32.13736        18.42680        -1.13669
O          9.39263        18.18036        -1.55569
O         29.71193        18.43837        -1.55747
O         26.27866         8.19964         0.19303
O         35.39688         6.47563         3.06391
O         38.96129        14.47744        -0.98712
O         15.54643         2.62438        -3.62299
O         19.50365        14.24634        -3.84356
H         18.75177        13.63022        -4.02109
O         33.84552        14.27153         1.59014
H         34.45550        13.71820         2.12356
O         23.41818        10.71432        -3.48778
H         24.17566        11.27560        -3.76527
O         15.67125        16.63750        -3.14885
H         14.78222        16.27168        -3.34931
O          9.47370         5.15533        -1.34607
H          9.41560         5.94950        -1.91834
O         27.30172         5.49096        -2.88406
H         28.07656         4.89682        -2.98333
O         12.45919         3.58190         1.44460
H         11.86489         3.54684         2.23207
O          7.69865         4.22195         2.89980
H          8.52973         4.64243         3.21720
O         14.30151         8.84031        -3.15294
H         14.17292         7.97154        -3.59125
O         21.00728         6.57937        -4.27807
H         20.97189         5.68083        -4.67938
H          0.94238         0.81835         0.61123
H          0.75236         3.25311        -0.01620
H          3.19170        -0.09634         1.20768
H          0.61898         6.24183         0.87294
H          0.69350         8.39207         2.12056
H          0.84418        10.06124         3.19292
H          0.88629        12.49096         3.42066
H          1.14874        14.36976         4.01833
H          1.33938        16.81195         4.32785
H          2.54533        18.92727         3.99989
H          5.54287         0.12803         1.33154
H          4.46811        20.18988         3.08704
H          7.89491         0.23473         0.99893
H          6.58764        20.24149         1.90817
H         10.22829         0.26060         0.33091
H          8.83387        20.25488         0.97697
H         12.44744         0.27849        -0.69504
H         11.17936        20.29320         0.25078
H         14.74607         0.31223        -1.42523
H         13.57125        20.32518        -0.21179
H         17.29801         0.43408        -1.82174
H         15.99518        20.32925        -0.59989
H         19.53374         0.44299        -2.13132
H         18.45892        20.30369        -0.68482
H         21.92437         0.33440        -1.48283
H         20.90715        20.26963        -0.67557
H         24.36062         0.30614        -0.93802
H         23.34711        20.16657        -0.42261
H         26.76832         0.31488        -0.31420
H         25.73478        20.03250        -0.03487
H         29.17531         0.32254         0.16667
H         27.82866        19.70378         0.92392
H         31.56364         0.28868         0.19992
H         30.42932        19.86809         1.45173
H         34.27437         0.37351         1.00180
H         32.85150        19.90648         1.86845
H         36.25785         0.39048         2.25600
H         35.51938        19.70638         2.26314
H         38.57854         0.36094         3.07214
H         37.89571        19.92558         1.96267
H         40.66282         1.58679         3.64069
H         41.91608         3.69221         3.82474
H         42.08050         6.13228         3.48698
H         42.03014         8.13280         3.40435
H         42.16922        10.48208         2.81517
H         42.51263        12.15685         2.04897
H         42.94941        14.40864         1.12798
H         42.78471        17.31800         0.16271
H         40.12490        20.19337         1.96262
H         42.46077        19.49624         1.37121
