         324
 CSIRO Nanostructure Databank - Neutral Graphene Oxide Data Set
C          1.27185         3.36960         0.73548
C          0.11482         4.02921         0.38861
C          1.15717         6.23071         0.58958
C          0.06141         5.44857         0.27485
C          1.16425         7.69052         0.51439
C         -0.04489         8.39796         0.57235
C          1.10132        10.51354         0.20864
C         -0.07013         9.78617         0.45202
C          1.03052        11.98117        -0.00473
C         -0.09953        12.76567         0.51129
C          1.16373        14.87740         0.33755
C         -0.05048        14.12045         0.56619
C          1.15553        16.30232         0.43375
C         -0.04046        17.03921         0.35050
C          1.14803        19.19153         0.21551
C         -0.05852        18.42340         0.28470
C          1.11336        20.61131         0.11259
C         -0.08133        21.36897         0.30310
C          1.02291        23.51074        -0.30821
C         -0.11919        22.73678         0.21915
C          1.06941        24.99160        -0.00321
C         -0.11176        25.89400        -0.15736
C          1.34934        27.90399        -0.51806
C          0.00991        27.22892        -0.28123
C          1.34063        29.42322        -0.44788
C          3.71594         3.46938         1.12949
C          2.48021         4.09470         0.98780
C          3.72063         6.35363         0.79286
C          2.38629         5.55932         1.00882
C          3.64679         7.73444         0.26521
C          2.38368         8.42024         0.32859
C          3.58637        10.55324        -0.10065
C          2.34760         9.83233         0.11762
C          3.60681        11.97499        -0.14493
C          2.34743        12.74044        -0.17651
C          3.63134        14.86845         0.04763
C          2.37468        14.18142         0.11587
C          3.66787        16.29419         0.16598
C          2.44858        17.04399         0.66600
C          3.61135        19.19808         0.03149
C          2.39720        18.49667         0.24289
C          3.61952        20.56016        -0.25913
C          2.40914        21.38019         0.11478
C          3.62175        23.53222        -0.60143
C          2.31576        22.76568        -0.51842
C          3.66072        24.96695        -0.22183
C          2.39054        25.66194         0.13436
C          3.66203        27.66381         0.56695
C          2.46636        27.14355         0.16075
C          3.75692        29.79285        -0.04237
C          2.41437        30.24520        -0.43527
C          6.19080         3.46264         0.86518
C          4.94819         4.17926         0.95780
C          6.09687         6.17295         0.02724
C          4.91842         5.55629         0.65406
C          6.03649         7.60571        -0.40570
C          4.80281         8.39502        -0.15336
C          6.03983        10.55634        -0.35866
C          4.81140         9.83275        -0.24976
C          6.04662        11.95188        -0.24485
C          4.82625        12.68561        -0.17065
C          6.07299        14.85380        -0.24224
C          4.83894        14.13929        -0.13697
C          6.08534        16.27497        -0.22314
C          4.86817        16.97885         0.00468
C          6.07790        19.11594        -0.51710
C          4.91710        18.46943         0.26505
C          6.16487        20.59190        -0.26031
C          4.89029        21.27764        -0.51320
C          6.17539        23.47686        -0.22650
C          4.92312        22.77900        -0.60560
C          6.16150        24.89483         0.01096
C          4.95077        25.61802         0.11654
C          6.14632        27.76189         0.26123
C          4.94398        26.99979         0.39101
C          6.17081        29.19371        -0.05985
C          4.99849        29.94989        -0.56101
C          8.63396         3.41518         0.53243
C          7.41194         4.09698         0.59513
C          8.59020         6.11208        -0.41867
C          7.43498         5.60897         0.46942
C          8.61356         7.63196        -0.45004
C          7.33080         8.31903        -0.67660
C          8.60771        10.50393        -0.47854
C          7.31428         9.83781        -0.63963
C          8.62958        11.95312        -0.25652
C          7.32438        12.69345        -0.15211
C          8.52489        14.84022        -0.51959
C          7.31454        14.15426        -0.34901
C          8.58297        16.25463        -0.42191
C          7.35097        16.98451        -0.26057
C          8.56072        19.12046         0.08411
C          7.34951        18.38175        -0.22862
C          8.60449        20.58609         0.01691
C          7.35424        21.29569        -0.14424
C          8.61722        23.43694         0.14980
C          7.36792        22.75165        -0.08164
C          8.61784        24.86942         0.21298
C          7.38856        25.60126         0.19280
C          8.62941        27.73229         0.28012
C          7.37564        27.03326         0.24918
C          8.63503        29.18587         0.19135
C          7.38738        29.83859        -0.10679
C         11.12680         3.42093         0.50200
C          9.88232         4.11599         0.39538
C         11.05777         6.29971         0.20864
C          9.86386         5.49177         0.08399
C         11.07222         7.70616        -0.25340
C          9.79918         8.35630        -0.46057
C         11.06867        10.52007        -0.62741
C          9.80799         9.80654        -0.55630
C         11.03046        11.95442        -0.82771
C          9.85439        12.65801        -0.67769
C         10.97906        14.88072        -1.30153
C          9.73352        14.10095        -0.95446
C         11.00094        16.32893        -1.00588
C          9.83769        16.95363        -0.55896
C         11.10106        19.16085        -0.21176
C          9.89706        18.34864        -0.08693
C         11.06636        20.51215         0.09710
C          9.82206        21.25709         0.15805
C         11.08058        23.41640         0.36732
C          9.84261        22.71059         0.23839
C         11.06375        24.83299         0.42903
C          9.85296        25.57661         0.30745
C         11.09797        27.77402         0.44847
C          9.83223        27.01978         0.30854
C         11.09543        29.29901         0.55068
C          9.80155        29.92448         0.27270
C         13.59964         3.41121         0.28462
C         12.36153         4.07594         0.37588
C         13.61476         6.24555         0.00793
C         12.38071         5.55122         0.39867
C         13.53545         7.63957        -0.44944
C         12.26580         8.40141        -0.37894
C         13.56589        10.54850        -0.66493
C         12.29636         9.82754        -0.61180
C         13.57659        11.96522        -0.80645
C         12.30167        12.64783        -1.15643
C         13.52366        14.93008        -1.07555
C         12.28217        14.13670        -1.36078
C         13.52548        16.34232        -1.65435
C         12.23460        17.09262        -1.27295
C         13.62280        19.12413        -0.53331
C         12.31468        18.52961        -0.77578
C         13.65902        20.42242         0.16455
C         12.34631        21.19992         0.37306
C         13.54916        23.34737         0.17058
C         12.35802        22.68595         0.35510
C         13.59743        24.81815         0.13403
C         12.33503        25.58734         0.43846
C         13.35625        27.53131        -0.64998
C         12.29687        27.00786         0.03964
C         13.50782        29.73652        -0.08335
C         12.35501        30.12064         0.55387
C         16.04663         3.42344         0.34900
C         14.83565         4.11837         0.27692
C         16.06103         6.32140        -0.02808
C         14.82149         5.57497         0.09279
C         16.07653         7.67225        -0.31085
C         14.83818         8.40049        -0.61994
C         16.02973        10.59945        -0.42909
C         14.81964         9.88097        -0.54865
C         16.02065        12.03159        -0.53006
C         14.77901        12.68979        -0.76148
C         16.08081        14.84213        -1.22162
C         14.78655        14.17910        -0.84552
C         16.07171        16.33967        -1.53384
C         14.80866        17.10320        -1.33089
C         16.06821        19.24711        -1.04637
C         14.80620        18.45315        -0.96217
C         16.12928        20.60092        -0.49924
C         14.94952        21.17782         0.12623
C         16.00266        23.40988        -0.52300
C         14.88845        22.71417         0.14708
C         15.68902        24.59328        -1.22006
C         14.63007        25.43485        -0.72584
C         16.33723        28.04686        -0.39695
C         14.52475        26.78788        -0.99434
C         16.04261        29.34610         0.23753
C         14.84574        30.10151         0.28746
C         18.59901         3.46677         0.68191
C         17.28318         4.11687         0.67857
C         18.58555         6.30555         0.28256
C         17.29510         5.66390         0.44491
C         18.64884         7.69606        -0.18271
C         17.33598         8.43087        -0.45391
C         18.49830        10.58627        -0.13073
C         17.31065         9.90111        -0.31921
C         18.44471        12.07569         0.15909
C         17.24884        12.77684        -0.44657
C         18.54457        14.86722        -0.66417
C         17.32353        14.14776        -0.77456
C         18.63683        16.30257        -1.02669
C         17.40271        17.05530        -1.45800
C         18.62204        19.24332        -0.86044
C         17.40106        18.55038        -1.30809
C         18.58557        20.64468        -0.64557
C         17.32268        21.35057        -0.55854
C         18.52323        23.52758        -0.23552
C         17.30464        22.78944        -0.50975
C         18.57726        24.94464         0.06192
C         17.88632        26.05309        -0.69369
C         18.22384        27.67832         1.15632
C         17.34256        27.23034         0.05595
C         18.24226        29.13092         1.41082
C         17.12985        29.88636         0.99198
C         19.74044         4.19746         0.80304
C         20.96960         6.39057         0.75858
C         19.75704         5.64080         0.65989
C         20.98392         7.76650         0.59211
C         19.83964         8.48134         0.15600
C         20.95331        10.67328         0.12141
C         19.77310         9.90161         0.04181
C         20.93926        12.06492        -0.00161
C         19.75083        12.78696        -0.07386
C         20.92770        14.96476        -0.05831
C         19.74512        14.20947        -0.26370
C         20.94450        16.35173        -0.15388
C         19.82318        17.07527        -0.58013
C         21.00378        19.25470        -0.34033
C         19.81832        18.51145        -0.60930
C         20.98271        20.62489        -0.20713
C         19.76545        21.35177        -0.28421
C         20.76771        23.34942         0.77146
C         19.69491        22.75451         0.06046
C         20.67935        24.63794         1.26027
C         19.59174        25.46056         0.88971
C         20.61588        27.58313         1.96953
C         19.45923        26.83534         1.47803
C         20.50139        28.90505         2.33862
C         19.33266        29.67132         2.10841
O          1.43793        23.00789        -1.63921
O          3.69799        28.95792         1.09106
O         11.70592         6.15236         1.54242
O         16.05897        15.33555        -2.59283
O         16.67805        19.19984        -2.39333
O         15.59169        27.54737        -1.51929
O         18.09270        26.15356        -1.89935
O         13.34817        25.36443         1.47787
O         14.14469         7.84064        -1.78450
O          1.70102        25.15271         1.33825
O          8.09880        12.34173         1.08121
O          5.87289         6.49728        -1.39190
O          4.99302        21.97421        -1.83936
O          3.62890        24.55529        -1.64489
O         15.23444        21.94946         1.32964
O         12.37801        13.24885        -2.50522
O         11.14260        28.44347         1.76320
O         18.26935        26.86622         2.36603
O         13.03132        20.51422         1.48410
O          7.25871         9.09113        -1.91955
O         18.34105        16.59227        -2.46503
O          1.48769        12.39577        -1.33005
O          3.07680         6.21779         2.10404
O         13.35433        28.83002        -1.15158
O         10.05645        14.47778        -2.35476
O         17.11897         5.07659         1.77663
O         18.15990         7.92784        -1.56151
O         12.04349        18.20232        -2.22539
O          9.27180        18.53457         1.22583
O         14.04782        14.82533         0.28022
O         13.48577        16.17204        -3.08406
H         13.21930        17.03422        -3.47394
O          8.39658         5.64863        -1.77376
H          7.51916         5.98958        -2.08100
O          5.78453        18.95376        -1.93865
H          5.51015        19.82152        -2.30800
O          5.16880        18.61846         1.69812
H          6.04634        18.22079         1.89155
O         16.25239        24.84063        -2.40701
H         16.09521        25.76905        -2.68754
O          7.67826         6.16041         1.79072
H          7.12841         5.67091         2.43810
O          2.66884        21.73022         1.53937
H          2.68814        20.89231         2.05120
O         18.23287        12.16542         1.62895
H         17.34892        11.78306         1.81787
O          1.62612        27.67870        -1.95192
H          1.66650        26.71028        -2.11021
O          2.63496        17.08472         2.13700
H          3.47042        17.58889         2.29359
H          1.29312         2.27118         0.77763
H         -0.79192         3.45167         0.16150
H         -0.87542         5.91379        -0.06237
H         -0.98830         7.85723         0.72729
H         -1.03729        10.30306         0.50819
H         -0.99987        12.24586         0.86755
H         -0.93602        14.65849         0.93177
H         -1.00005        16.50804         0.27698
H         -1.02966        18.93005         0.21069
H         -1.00517        20.84474         0.58754
H         -1.04303        23.27406         0.47805
H         -1.11368        25.44120        -0.09087
H         -0.89926        27.84632        -0.35777
H          0.36647        29.87388        -0.70279
H          3.75526         2.37051         1.17380
H          2.26105        31.31918        -0.63427
H          6.17563         2.37110         1.00265
H          5.17595        30.64816        -1.39217
H          8.65297         2.32629         0.68994
H          7.41929        30.90555        -0.37363
H         11.10809         2.32552         0.59873
H          9.76748        31.00638         0.07573
H         13.62152         2.31211         0.32543
H         12.42478        30.85521         1.37171
H         16.05361         2.32675         0.26111
H         14.90223        30.98195         0.94980
H         18.64328         2.36925         0.62295
H         17.05434        30.93050         1.33242
H         20.71018         3.68522         0.89029
H         21.89242         5.87017         1.05181
H         21.91810         8.30780         0.79638
H         21.92581        10.16893         0.19370
H         21.90577        12.58091        -0.08115
H         21.84081        14.46132         0.28349
H         21.86490        16.87643         0.13380
H         21.96552        18.73494        -0.24435
H         21.92870        21.14886        -0.01718
H         21.64974        22.74933         1.03001
H         21.47591        25.03231         1.90530
H         21.59947        27.09393         2.00597
H         21.38030        29.41531         2.75870
H         19.32950        30.73837         2.37252
