         720
 CSIRO Nanostructure Databank - Neutral Graphene Oxide Data Set
C         22.78562        27.29971         0.87908
C         22.79443        28.67139         0.77357
C         22.84307        31.68698         0.26519
C         22.91143        32.99857        -0.08915
C         23.23320        35.44068        -2.15362
C         23.42951        36.61671        -2.80587
C         23.34800        40.55452        -2.74139
C         23.30575        41.84142        -2.18059
C         23.28156        44.59052        -1.14602
C         23.26741        45.86952        -1.52656
C         25.62778        24.90880         0.16298
C         24.43114        25.52576         0.05695
C         25.24714        27.36109         1.46590
C         24.01701        26.48310         1.14721
C         25.29138        28.66597         0.63028
C         23.98813        29.42319         0.70750
C         25.27417        31.32498        -0.42910
C         23.96778        30.75286         0.07270
C         25.14384        32.69827        -0.92864
C         24.08827        33.53351        -0.74408
C         25.47301        35.81773        -0.98222
C         24.19392        34.98614        -1.14000
C         25.59863        37.15108        -1.66416
C         24.55055        37.46978        -2.53262
C         25.65719        40.24478        -1.94176
C         24.50504        39.78953        -2.61752
C         25.65524        41.62207        -1.57524
C         24.46048        42.39037        -1.63065
C         25.80439        44.48505        -1.44640
C         24.53560        43.77199        -1.00913
C         25.79002        45.89791        -1.65940
C         24.49279        46.59777        -2.00465
C         25.68358        48.71723        -1.48184
C         24.52226        48.04326        -1.58077
C         27.80767        23.11638         0.45875
C         27.73663        24.34138         1.26149
C         26.64951        25.22309         1.17083
C         27.72806        27.58768         1.84275
C         26.53621        26.64375         1.71482
C         27.73457        28.99343         1.31697
C         26.53302        29.56262         0.69006
C         27.82802        31.63853         0.23802
C         26.59123        30.81051         0.09589
C         27.93683        33.02730         0.04813
C         26.99816        33.83392        -0.69059
C         27.80874        36.03482        -0.01585
C         26.73906        35.17201        -0.52649
C         27.85760        37.44422        -0.55682
C         26.73696        38.00482        -1.37687
C         28.04330        40.11703        -1.36920
C         26.80919        39.41051        -1.60463
C         28.08604        41.53771        -1.51986
C         26.91966        42.29778        -1.41709
C         28.29146        44.40499        -1.50433
C         26.99233        43.74224        -1.44643
C         28.25442        45.88180        -1.70712
C         26.97916        46.61668        -1.72076
C         28.15657        48.80742        -1.55752
C         26.98492        48.06892        -1.65700
C         28.14863        50.24967        -1.36022
C         30.22343        22.78964         1.03801
C         28.96489        22.44537         0.27061
C         30.23808        24.23734         1.45146
C         29.01331        24.71023         1.85733
C         30.21339        27.43663         1.51529
C         29.04729        26.96459         2.01175
C         30.30178        28.95408         1.55175
C         29.03646        29.63731         1.07706
C         30.34020        31.64704         0.68710
C         29.05487        30.95503         0.68691
C         30.34389        33.11103         1.03661
C         29.04787        33.82543         0.65734
C         30.35335        36.03345         0.31898
C         29.05540        35.32422         0.45595
C         30.36192        37.35361        -0.15703
C         29.19549        38.08178        -0.59510
C         30.52709        40.12187        -1.15941
C         29.25718        39.42000        -1.00712
C         30.52111        41.34734        -1.77546
C         29.33939        42.23185        -1.98546
C         30.87908        44.48091        -1.63769
C         29.48359        43.70684        -1.53234
C         30.67929        45.86525        -1.02939
C         29.53992        46.64733        -1.59265
C         30.52840        48.86845        -0.75466
C         29.54328        48.20917        -1.68907
C         30.22799        50.14733         0.02941
C         29.12661        50.89363        -0.68642
C         32.69365        20.22492        -0.15702
C         31.53270        20.90048         0.09996
C         32.71355        23.00185         0.55692
C         31.52558        22.27819         0.47784
C         32.73467        24.42610         0.90802
C         31.39903        25.15634         1.05021
C         32.74584        27.36206         1.45185
C         31.46082        26.60488         1.61110
C         32.75356        28.82520         1.12022
C         31.57302        29.52928         0.99330
C         32.81194        31.67530         0.71809
C         31.54923        30.96053         0.76503
C         32.80366        33.12931         0.65035
C         31.59712        33.85206         0.63592
C         32.83293        35.95001         0.53194
C         31.58686        35.27965         0.52082
C         32.86693        37.41292         0.42703
C         31.62816        38.12324        -0.05620
C         33.12949        40.13709        -0.59471
C         31.79387        39.41238        -0.81478
C         33.18416        41.60998        -0.54343
C         32.31977        42.44855        -1.24709
C         32.74077        44.33623         0.17615
C         32.00731        43.77770        -0.89322
C         32.57920        45.74918         0.72645
C         31.22384        46.22164         0.19536
C         32.72369        48.80948         0.35964
C         31.80911        48.39978        -0.75512
C         32.76529        50.30460         0.27495
C         31.53252        50.97465         0.17418
C         32.76636        53.05329         0.52745
C         31.56179        52.37440         0.27944
C         35.21891        18.74993        -0.44140
C         35.15827        20.15672        -0.19001
C         33.96353        20.87265        -0.03376
C         35.16248        23.00776         0.24138
C         33.97216        22.30857         0.27056
C         35.13927        24.47907         0.32532
C         33.90682        25.14045         0.81451
C         35.27628        27.35372         0.99622
C         34.00874        26.57410         1.21182
C         35.21488        28.81677         0.83115
C         34.02044        29.50994         0.87326
C         35.28953        31.66546         0.69103
C         34.01182        30.96314         0.72481
C         35.28612        33.11668         0.73055
C         34.05407        33.82357         0.67096
C         35.29848        35.94835         0.86281
C         34.05871        35.24785         0.66140
C         35.34394        37.37769         0.75164
C         34.18350        38.08263         0.36420
C         35.39501        40.19484         0.49064
C         34.21460        39.46486         0.15809
C         35.33870        41.62134         0.66743
C         34.06828        42.23425         0.37791
C         35.47452        44.64720         1.02549
C         33.71563        43.53209         0.78018
C         35.28067        45.99875         0.56477
C         33.98403        46.64379         0.49752
C         35.23284        48.80520         0.27395
C         34.01220        48.03872         0.35682
C         35.21945        50.22037         0.29099
C         33.99910        50.97357         0.39554
C         35.26656        52.99927         1.11942
C         33.98828        52.38080         0.59231
C         35.29534        54.49544         1.14635
C         37.67740        18.78463        -0.66448
C         36.40773        18.08755        -0.61124
C         37.68109        20.15572        -0.44698
C         36.46203        20.85916         0.11253
C         37.71437        23.00195         0.12889
C         36.41351        22.33067        -0.30378
C         37.70985        24.48333         0.36346
C         36.43178        25.24170         0.23953
C         37.73204        27.33960         0.59945
C         36.51203        26.67510         0.56156
C         37.76297        28.77270         0.71695
C         36.47836        29.49539         0.36518
C         37.78845        31.64230         0.65832
C         36.48281        30.96084         0.68520
C         37.78880        33.14015         0.76963
C         36.49567        33.83720         0.88616
C         37.71729        35.95155         1.59430
C         36.49451        35.23048         1.06585
C         37.80309        37.38679         1.13283
C         36.59435        38.07708         0.83836
C         37.87741        40.22673         0.58882
C         36.58913        39.48830         0.71018
C         37.78961        41.71030         0.84459
C         36.53695        42.37847         0.86340
C         37.76872        44.46407         0.20485
C         36.55843        43.82784         0.76057
C         37.74156        45.95302        -0.00191
C         36.48070        46.70707         0.23283
C         37.72390        48.84505        -0.02724
C         36.48123        48.10637         0.14166
C         37.73400        50.21758        -0.01323
C         36.44658        51.00745        -0.09509
C         37.68779        53.13325         0.45705
C         36.51239        52.39119         0.52136
C         37.69502        54.52921         0.72525
C         36.46756        55.18610         1.02024
C         40.12105        15.89544        -0.90423
C         38.96723        16.61506        -0.97498
C         40.14967        18.73105        -0.64514
C         38.93400        18.04840        -0.77233
C         40.20466        20.16481        -0.92274
C         38.88935        20.93637        -0.72720
C         40.19814        22.98710        -0.12106
C         38.98639        22.34636        -0.28243
C         40.20793        24.41183         0.32848
C         38.97637        25.22429         0.32013
C         40.22811        27.34629         0.57361
C         38.99549        26.61186         0.47050
C         40.23827        28.71669         0.88222
C         38.98087        29.44633         0.87356
C         40.22199        31.54747         1.24960
C         39.03189        30.88508         0.96248
C         40.19477        33.01084         1.54067
C         39.01237        33.82414         1.23040
C         40.26598        35.89670         1.61297
C         39.01794        35.18182         1.47827
C         40.25451        37.38443         1.69069
C         39.00821        38.12231         1.33669
C         40.27853        40.27539         1.34812
C         39.02499        39.50973         1.23223
C         40.28265        41.73327         1.01799
C         39.00413        42.43765         0.77278
C         40.30396        44.50718         0.27706
C         39.05400        43.79730         0.45771
C         40.25725        45.96061         0.04546
C         39.05156        46.64498        -0.01146
C         40.30884        48.84666        -0.30915
C         38.98824        48.09277        -0.28247
C         40.29741        50.29397        -0.05464
C         38.99151        50.98857        -0.15839
C         40.23934        53.18043         0.35341
C         38.96511        52.47057         0.07076
C         40.22270        54.54619         0.41250
C         38.97207        55.32798         0.76250
C         40.06233        57.28610        -0.27308
C         38.91394        56.64662         0.02987
C         42.63375        15.79488        -0.33735
C         41.32053        16.49298        -0.31211
C         42.68410        18.71039         0.03188
C         41.33447        18.00877        -0.16694
C         42.70828        20.14838        -0.40597
C         41.53117        20.91424        -0.93168
C         42.69077        22.97014        -0.20463
C         41.47420        22.31757        -0.33312
C         42.70763        24.44907        -0.21355
C         41.48673        25.17431         0.22972
C         42.76781        27.27666         0.54987
C         41.47822        26.68000         0.05555
C         42.77203        28.63393         1.21866
C         41.47180        29.43312         1.12534
C         42.74852        31.54383         1.67348
C         41.46356        30.81332         1.36153
C         42.82755        33.07007         1.99650
C         41.49476        33.78654         1.81753
C         42.70663        35.92028         0.99351
C         41.47971        35.23213         1.56787
C         42.81991        37.39227         1.31889
C         41.56814        38.12245         1.60370
C         42.78306        40.33151         1.52290
C         41.55722        39.52873         1.04670
C         42.78381        41.72391         0.89264
C         41.51477        42.30439         0.33715
C         42.79105        44.50177        -0.14566
C         41.51434        43.82396         0.30338
C         42.76857        45.98979         0.07457
C         41.53330        46.68137         0.00076
C         42.75683        48.82532         0.04647
C         41.54313        48.09636        -0.04859
C         42.73550        50.25661         0.08468
C         41.47938        50.96104         0.16188
C         42.76570        53.12352         0.21701
C         41.51152        52.39540         0.64064
C         42.73561        54.60963         0.25522
C         41.44163        55.31371         0.25305
C         42.54254        57.37571        -0.52769
C         41.36606        56.65896        -0.09361
C         43.78853        16.46588        -0.45524
C         45.20120        18.57684        -0.32133
C         43.83240        17.95879        -0.71154
C         45.15436        20.09382        -0.31358
C         43.95010        20.81754        -0.36966
C         45.17937        22.95950        -0.11383
C         43.96941        22.27846        -0.28105
C         45.15164        24.37666         0.42966
C         43.98566        25.19260        -0.08804
C         45.23646        27.34727         0.12297
C         43.93713        26.61352         0.35360
C         45.25487        28.74894         0.64390
C         43.92411        29.48317         0.54876
C         45.22470        31.61194         0.96151
C         44.01701        30.84424         1.23995
C         45.27307        33.04203         1.25668
C         44.00751        33.80829         1.37139
C         45.23617        35.90328         0.76083
C         43.99935        35.14757         1.13552
C         45.25258        37.41284         0.72413
C         43.98250        38.13638         1.03979
C         45.29845        40.25929         1.19694
C         44.01978        39.54427         1.14536
C         45.28348        41.74428         1.01615
C         44.05311        42.33131         0.37255
C         45.24602        44.53959         0.44945
C         44.05729        43.84300         0.35254
C         45.25536        45.99233         0.27455
C         44.00458        46.69247         0.14055
C         45.21786        48.86386         0.10586
C         43.99554        48.12244         0.10512
C         45.17693        50.29033         0.02766
C         43.95699        50.98483         0.02583
C         45.01959        53.12558        -0.90193
C         43.92269        52.45172        -0.07233
C         45.21763        54.67609        -0.67971
C         43.95762        55.38514        -0.17709
C         43.75197        56.76823        -0.63491
C         47.48094        18.76089        -1.35646
C         46.31986        18.09582        -1.23179
C         47.70717        20.07640        -0.71026
C         46.42502        20.80905        -0.25381
C         47.65931        22.95982        -0.42701
C         46.44367        22.27971        -0.24025
C         47.75357        24.39047        -0.03994
C         46.48230        25.11344         0.39328
C         47.72130        27.23292         0.37619
C         46.50671        26.57576         0.36778
C         47.73906        28.70544         0.62672
C         46.43324        29.41559         0.69164
C         47.69233        31.63264         0.18768
C         46.40844        30.88970         0.51664
C         47.65829        33.12242         0.25460
C         46.54171        33.77690         0.98785
C         47.73171        35.93805         0.97079
C         46.54697        35.25119         0.90632
C         47.73690        37.38979         1.01083
C         46.56234        38.09122         0.93375
C         47.80559        40.32382         1.23401
C         46.58317        39.58618         0.74458
C         47.77361        41.69961         1.25258
C         46.57108        42.46531         0.88956
C         47.70733        44.66209         1.00913
C         46.50670        43.83435         0.73397
C         47.74961        46.06072         0.50888
C         46.46721        46.74063         0.28040
C         47.74201        48.93985         0.32574
C         46.44739        48.15247         0.17456
C         47.67533        50.30957        -0.28609
C         46.45032        51.10899         0.06099
C         47.64406        53.10821        -0.54908
C         46.39293        52.31998        -0.90719
C         47.53628        54.37042         0.14342
C         46.36990        55.04590         0.20690
C         50.07417        20.25517        -1.54141
C         48.86508        20.90915        -1.09251
C         49.95517        23.12734        -1.46832
C         48.83487        22.29276        -0.91532
C         49.99530        24.61802        -1.18264
C         48.91790        25.22051        -0.36149
C         50.27407        27.27832         0.17124
C         48.94775        26.54656         0.02876
C         50.20027        28.78104        -0.19202
C         49.00113        29.48175         0.40782
C         50.19124        31.67196         0.15846
C         48.99767        30.96409         0.26422
C         50.20627        33.17836         0.29769
C         48.90433        33.89787         0.10678
C         50.18927        36.06717         0.37249
C         49.05052        35.20132         0.86717
C         50.22180        37.41675         0.63241
C         49.06379        37.98910         1.47057
C         50.29414        40.25847         1.13125
C         49.05709        39.56221         1.69153
C         50.32774        41.71157         1.38057
C         49.01599        42.46824         1.54168
C         50.28499        44.73782         1.29707
C         48.98127        43.97350         1.40518
C         50.25080        46.13850         0.73771
C         48.94157        46.71759         0.35374
C         50.19206        48.81587        -0.54576
C         48.92729        48.11820        -0.14421
C         50.18390        50.29223        -0.53589
C         48.88070        50.96162        -0.95833
C         50.10146        53.10739        -0.36725
C         48.85550        52.44171        -0.63401
C         51.20707        20.94224        -1.82358
C         52.53730        23.18280        -1.99244
C         51.21642        22.41622        -1.91413
C         52.56189        24.66309        -1.71458
C         51.27509        25.40075        -1.31665
C         52.61020        27.40422        -0.73262
C         51.41784        26.68826        -0.62201
C         52.69114        28.81418        -0.39217
C         51.50196        29.50530         0.23150
C         52.61498        31.69077        -0.39579
C         51.44314        30.99855        -0.05190
C         52.56541        33.13550        -0.74059
C         51.30402        33.88887        -0.46619
C         52.63038        36.09151        -0.36076
C         51.32021        35.39809        -0.31740
C         52.63764        37.51318        -0.00501
C         51.43359        38.16443         0.40321
C         52.67852        40.29132         0.48941
C         51.43050        39.58826         0.63301
C         52.69837        41.76004         0.44037
C         51.46401        42.51232         0.83965
C         52.70679        44.68625         0.54481
C         51.61109        43.95868         1.31177
C         52.71463        46.17735         0.48433
C         51.50338        46.79328         0.28367
C         52.71089        48.94340        -0.13735
C         51.52291        48.08028        -0.51361
C         52.65124        50.32088        -0.27296
C         51.36082        51.00449        -0.39790
C         51.29491        52.44833        -0.32426
C         54.98423        23.14016        -1.57032
C         53.83325        22.48523        -1.84888
C         55.04837        24.57864        -1.35961
C         53.84019        25.30392        -1.34834
C         55.06470        27.38870        -1.08392
C         53.83483        26.70428        -1.10610
C         55.03882        28.85979        -1.14206
C         53.82912        29.56310        -0.67756
C         55.09760        31.73069        -0.72035
C         53.84697        30.99901        -0.59903
C         55.12136        33.18709        -0.67742
C         53.85092        33.93000        -0.87676
C         55.07883        36.12666        -0.79252
C         53.79161        35.40419        -0.64898
C         55.09809        37.64776        -0.65088
C         53.85705        38.22883        -0.01279
C         55.16770        40.32231         0.66215
C         53.87998        39.60723         0.29223
C         55.18349        41.80325         0.33323
C         53.99383        42.47034         0.37781
C         55.24554        44.65877         0.37876
C         53.94887        43.93776         0.20706
C         55.23979        46.14796         0.49775
C         53.96372        46.89159         0.29638
C         55.23873        49.07154         0.29643
C         53.95664        48.26613         0.10962
C         55.10256        50.46080        -0.27196
C         53.90013        51.05581        -0.41350
C         57.54465        24.57530        -1.11160
C         56.29230        25.26657        -1.18707
C         57.54432        27.41679        -0.97798
C         56.29705        26.69496        -1.12269
C         57.58834        28.83483        -0.90433
C         56.34858        29.60865        -1.11586
C         57.62411        31.75855        -0.94395
C         56.31129        31.04340        -0.79255
C         57.57965        33.18433        -0.45846
C         56.33200        33.86877        -0.52477
C         57.59385        36.06327        -0.29038
C         56.36365        35.34870        -0.62621
C         57.61589        37.47640        -0.25833
C         56.40112        38.19067        -0.10034
C         57.72252        40.34043        -0.13641
C         56.44812        39.59183         0.27408
C         57.58236        41.78661        -0.60407
C         56.42900        42.52693         0.04960
C         57.60370        44.62860        -0.64068
C         56.46648        43.89366         0.03742
C         57.69279        46.09346        -0.27612
C         56.56576        46.88965         0.37615
C         57.77874        48.95814        -0.22703
C         56.42571        48.27117        -0.30817
C         58.72313        25.25223        -0.92638
C         59.96380        27.36964        -0.57293
C         58.75306        26.67762        -0.83135
C         59.97931        28.74147        -0.43019
C         58.79323        29.51335        -0.59047
C         59.92771        31.65823        -0.02251
C         58.81321        30.95844        -0.46067
C         59.93997        33.06625         0.06875
C         58.78832        33.83664        -0.14854
C         60.04326        36.00983        -0.48710
C         58.84075        35.32527         0.12288
C         60.04967        37.34464        -0.69678
C         58.88485        38.17552        -0.43384
C         60.07111        40.33458        -0.89150
C         58.89954        39.56368        -0.58642
C         60.09014        41.70628        -0.81309
C         58.92780        42.50358        -0.54326
C         60.12958        44.67678        -0.67734
C         58.93381        43.89913        -0.55200
C         60.09625        46.04730        -0.71393
C         58.87677        46.77171        -0.44930
C         58.91016        48.23103        -0.29601
O         53.11635        33.44022        -2.05296
O         47.36801        20.16559         0.70573
O         50.44350        33.49023         1.74979
O         27.41617        37.14215         0.83745
O         27.50534        28.69051         2.76387
O         43.57314        30.83773         2.65596
O         34.92203        26.81577         2.34465
O         25.64403        27.09816         2.83005
O         44.45553        52.99316        -2.18692
O         48.04336        33.77013        -1.02140
O         28.68864        34.72586         1.76203
O         49.46578        24.09851        -2.44688
O         46.83514        31.16551        -0.90491
O         41.05070        24.69199         1.52289
O         49.28617        37.36047         2.70967
O         32.82113        39.42643        -1.84649
O         40.62776        33.34972         2.91399
O         24.39357        35.84749         0.02857
O         49.25919        48.23975        -1.56607
O         29.11298        46.16753        -2.91724
O         39.61902        48.45510        -1.55566
O         50.87434        34.72268        -1.56013
O         34.45730        44.09285         1.83928
O         35.65723        25.02399        -1.01382
O         55.25903        45.30749         1.71713
O         39.40667        20.60722        -2.06936
O         31.67849        41.86985        -2.35513
O         37.69903        23.51165         1.48941
O         45.25304        41.17878         2.36752
O         49.53187        34.61878         2.14779
O         51.68556        42.24648        -0.55660
O         55.64064        29.35091        -2.38905
O         37.61930        45.02139        -1.15492
O         50.30929        45.86595         2.20692
O         41.03690        17.13874         0.98402
O         24.57397        38.59344        -3.35462
O         55.82745        35.73993        -1.99035
O         40.39177        41.28648         2.40375
O         48.11152        44.55124         2.42982
O         24.46230        30.49382        -1.35534
O         57.48510        40.00340         1.25502
O         51.80575        25.44443        -2.67575
O         53.00274        44.31066        -0.84784
O         28.98957        25.78461         2.73377
O         43.43504        24.93206        -1.40421
O         57.39516        41.86543        -2.00068
O         45.13093        36.63737        -0.53379
O         46.31173        33.27767         2.34060
O         49.82645        42.11463         2.69653
O         32.00954        38.18377         1.36432
O         32.21967        26.95796         2.79286
O         37.95905        32.49509        -0.55467
O         43.68904        55.17651         1.24883
O         47.38972        24.54700         1.39396
O         38.94311        51.93692        -1.31703
O         43.57712        29.61147        -0.79653
O         26.23701        33.15634        -1.65705
O         48.64546        29.04864         1.76690
O         40.93870        37.89054         2.89371
O         51.77713        22.85146        -3.19335
O         44.83746        24.21307         1.84380
H         45.68349        24.00447         2.30324
O         43.58979        18.18005        -2.11576
H         44.25868        17.69228        -2.63919
O         36.41925        29.44612        -1.11477
H         37.11450        30.04951        -1.45742
O         57.25609        44.57751        -2.06745
H         57.24896        43.59575        -2.29938
O         57.02940        47.13218         1.73829
H         56.72103        46.35691         2.26905
O         41.38284        41.89822        -1.10279
H         40.47236        42.13196        -1.39098
O         42.45199        35.92998        -0.45908
H         43.27746        36.27277        -0.88821
O         42.73516        40.40872         2.96595
H         43.57247        40.83737         3.26148
O         30.40081        29.25752         2.98391
H         31.10610        28.67329         3.35099
O         50.07599        28.83805        -1.62135
H         49.90763        29.76242        -1.90081
O         42.83602        44.31644        -1.62352
H         42.05149        44.77069        -2.00133
O         46.53534        51.74206        -2.20857
H         45.75188        52.07793        -2.73192
O         51.61767        29.40684         1.67758
H         52.39215        29.93614         1.95910
O         35.28923        52.57609         2.55293
H         36.00872        53.08130         2.99052
O         41.86848        21.14466        -2.33956
H         41.01165        21.25694        -2.81651
O         41.45010        26.93491        -1.38426
H         41.98488        27.74028        -1.56603
O         42.97134        18.73161         1.44139
H         42.50586        17.95803         1.84025
O         30.01727        48.49661        -3.04493
H         29.52733        47.88618        -3.64554
O         57.82308        31.86464        -2.41178
H         57.00098        32.24092        -2.79542
O         31.21537        44.50685        -3.03007
H         30.52682        45.06903        -3.46180
O         58.95188        35.46408         1.58297
H         59.07876        36.41708         1.77924
O         25.36297        28.07676        -0.72014
H         25.07176        28.79022        -1.34692
O         49.11347        39.76441         3.11878
H         49.28826        38.84952         3.49242
O         46.60153        39.77057        -0.71279
H         45.91920        39.18799        -1.11137
O         24.68692        43.56202         0.43381
H         25.44139        42.95114         0.57344
O         31.04458        25.44722        -0.35693
H         31.10243        24.60963        -0.86545
O         30.43249        46.87433         1.07238
H         30.94820        47.01807         1.90041
O         23.68491        25.65948         2.29148
H         24.28772        25.94086         3.02413
O         37.47253        36.04668         3.04510
H         38.25288        36.48122         3.45311
O         29.73818        49.88139         1.36586
H         30.41530        49.30822         1.79875
O         29.21019        42.34263        -3.44595
H         30.06241        42.72991        -3.75674
O         36.60462        20.85234         1.56342
H         36.57942        19.92162         1.86907
O         45.51824        55.20792        -1.98389
H         45.13872        54.52121        -2.60720
O         30.08894        22.01686         2.29123
H         29.32842        22.38537         2.79001
O         43.05882        28.33578         2.58855
H         43.13046        29.18605         3.08856
O         50.60814        27.10567         1.56606
H         50.01427        27.70432         2.08265
O         51.80969        47.68605        -1.89027
H         50.95115        47.44708        -2.30719
O         46.60288        51.60711         1.42367
H         46.94084        50.85990         1.97269
O         55.07450        38.20009        -2.00491
H         55.52071        37.53960        -2.58799
O         52.06488        43.89283         2.67758
H         51.31675        43.57550         3.23322
O         32.37070        47.72450        -1.79095
H         31.73350        47.75730        -2.54775
O         44.16411        41.92256        -1.03886
H         43.49600        42.45067        -1.54360
O         32.12911        48.56250         1.69185
H         32.71933        49.00135         2.34185
O         41.64800        39.31600        -0.37824
H         41.65493        40.19422        -0.84412
O         45.19976        27.54700        -1.33353
H         44.56998        28.31851        -1.47532
O         36.33086        22.40433        -1.74256
H         36.10337        23.33844        -1.97000
O         30.42187        33.08160         2.49659
H         29.90581        33.85723         2.82510
O         47.91717        49.15172         1.77837
H         47.94510        48.26795         2.20879
O         45.52202        18.11542         1.01172
H         46.27401        18.66972         1.33118
O         38.22392        40.17118        -0.87482
H         38.18581        39.22833        -1.14825
O         32.41953        45.71772         2.15109
H         33.19083        45.22736         2.52679
O         55.10863        40.26491         2.12500
H         56.01809        40.44890         2.45590
O         48.83307        50.77793        -2.39827
H         48.80117        49.80885        -2.57130
O         24.41156        46.59470        -3.47036
H         25.18614        47.09144        -3.80923
O         56.09872        48.07637        -1.69574
H         56.76910        47.48010        -2.09396
O         39.15600        55.67104         2.18634
H         39.95241        56.24222         2.24419
O         55.44748        49.26700         1.71744
H         56.00132        48.51667         2.05445
O         43.13264        33.17883         3.40425
H         42.31667        32.94372         3.90042
O         41.53550        52.27788         2.10932
H         41.87877        53.12511         2.46727
O         36.27252        51.29969        -1.53510
H         37.15451        51.61749        -1.85896
H         21.82557        26.76402         0.88779
H         21.83558        29.20076         0.66215
H         21.96254        31.31866         0.81015
H         22.06890        33.67190         0.11967
H         22.40963        34.77148        -2.44080
H         22.72873        36.94539        -3.58540
H         22.48723        40.15594        -3.29297
H         22.38558        42.43672        -2.25298
H         22.35007        44.11445        -0.80286
H         22.31588        46.42286        -1.56184
H         25.87157        24.14986        -0.59229
H         23.73541        25.25796        -0.75102
H         25.66662        49.78548        -1.22499
H         23.56470        48.56696        -1.44074
H         26.90176        22.72843        -0.02482
H         27.30858        50.83545        -1.76570
H         28.95098        21.52542        -0.33292
H         29.05587        51.98435        -0.56093
H         32.64423        19.16070        -0.42128
H         30.57763        20.35996         0.05836
H         32.72595        54.14053         0.68203
H         30.63231        52.95830         0.22929
H         34.28819        18.16895        -0.50707
H         34.37762        55.03442         1.42042
H         36.38595        17.00194        -0.77458
H         36.47045        56.27698         1.15697
H         40.15476        14.84995        -1.24282
H         38.05509        16.11750        -1.33342
H         40.03669        58.28559        -0.73298
H         37.94168        57.12751        -0.14996
H         42.63522        14.70096        -0.20843
H         42.41126        58.41082        -0.87684
H         44.74381        15.91883        -0.42330
H         44.59608        57.28263        -1.11554
H         48.26621        18.36500        -2.01780
H         46.20033        17.12538        -1.74013
H         48.40020        54.72884         0.72279
H         46.28419        55.94687         0.83262
H         50.09579        19.15680        -1.56551
H         50.09576        54.19887        -0.23909
H         52.10841        20.39746        -2.13524
H         52.21651        53.02116        -0.16064
H         55.91405        22.55752        -1.52066
H         53.86362        21.40352        -2.03983
H         56.01863        51.04300        -0.45039
H         53.85665        52.10223        -0.74739
H         57.56748        23.47914        -1.17289
H         57.82929        50.05599        -0.18354
H         59.66869        24.69785        -0.83888
H         60.89554        26.79532        -0.46911
H         60.93351        29.24270        -0.22073
H         60.83407        31.11970         0.28743
H         60.86311        33.56109         0.40068
H         60.94125        35.41506        -0.70883
H         60.95806        37.82204        -1.09078
H         61.00439        39.81080        -1.14111
H         61.04566        42.21816        -0.99961
H         61.10059        44.16596        -0.74807
H         61.02868        46.61592        -0.84209
H         59.89406        48.72434        -0.29291
