         618
 CSIRO Nanostructure Databank - Neutral Graphene Oxide Data Set
C         22.97019        69.92837         0.85019
C         22.97621        71.33743         0.75952
C         21.76742        72.07527         0.77153
C         22.97782        74.17494         0.63265
C         21.77611        73.46834         0.70300
C         25.33309        65.62345         0.79076
C         25.33978        66.99255         0.90547
C         24.14179        67.78203         0.84396
C         25.45188        69.88909         0.46645
C         24.15866        69.17316         0.78813
C         25.45843        71.37405         0.75497
C         24.23157        72.05578         0.71002
C         25.45027        74.17047         0.52508
C         24.21616        73.49024         0.64621
C         27.67753        61.41222        -0.64241
C         27.73150        62.81278        -0.06003
C         26.56056        63.47794         0.19681
C         27.89606        65.46750         1.10233
C         26.55251        64.79085         0.86143
C         27.88596        66.95332         1.35096
C         26.60043        67.71899         1.20454
C         27.89023        69.84990         1.00060
C         26.67527        69.16468         0.94458
C         27.89463        71.29634         1.02331
C         26.69631        72.07517         0.86398
C         27.86349        74.29327         0.30546
C         26.68479        73.52015         0.64848
C         30.17550        57.06627        -0.48938
C         30.15408        58.47541        -0.43063
C         28.94235        59.23940        -0.52822
C         30.18912        61.33407        -0.32711
C         28.95378        60.61997        -0.44475
C         30.20334        62.76049        -0.22546
C         29.00733        63.47397         0.05264
C         30.26207        65.57615         0.28785
C         29.09757        64.85264         0.47876
C         30.41823        66.96285         0.75899
C         29.17853        67.70289         1.24083
C         30.37849        69.85243         0.91630
C         29.15848        69.16068         1.08045
C         30.37985        71.27307         1.06898
C         29.15135        71.87106         1.33862
C         30.41689        74.30103         0.26913
C         29.13096        73.98358         0.76676
C         32.63755        52.67246        -0.90935
C         32.30164        53.92252        -0.37831
C         31.29957        54.86775        -0.69649
C         32.59823        56.96898        -0.15504
C         31.37851        56.28622        -0.41062
C         32.59811        58.43473        -0.01229
C         31.37848        59.19602        -0.27424
C         32.66911        61.33417        -0.41660
C         31.41783        60.60649        -0.29084
C         32.62748        62.77299        -0.52563
C         31.44807        63.46930        -0.34923
C         32.71122        65.68607        -0.26556
C         31.39748        64.97753        -0.51226
C         32.76902        67.04708        -0.04121
C         31.58408        67.77252         0.35171
C         32.83252        69.90406         0.42709
C         31.60975        69.14649         0.60052
C         32.85048        71.33529         0.59713
C         31.65209        72.10783         1.15262
C         32.80127        74.17635         0.27797
C         31.57781        73.53491         0.53076
C         35.23750        48.42543        -0.48727
C         35.16855        49.83138        -0.86565
C         33.95574        50.63552        -0.71593
C         35.20849        52.76541        -0.70266
C         33.94093        52.03252        -0.73623
C         35.25456        54.20167        -0.63789
C         34.13342        54.91837        -0.18951
C         35.21442        57.07861        -0.60122
C         33.89902        56.31805        -0.45088
C         35.22447        58.50825        -0.20029
C         33.92283        59.24545        -0.12252
C         35.12568        61.31114        -1.01601
C         33.88130        60.64742        -0.52361
C         35.14320        62.80583        -1.11830
C         33.86723        63.52547        -0.84991
C         35.12819        65.69938        -1.01792
C         34.00845        64.92564        -0.30158
C         35.21803        67.11570        -0.47111
C         34.03898        67.77140        -0.10838
C         35.24973        69.89903        -0.12138
C         34.02820        69.19781         0.09969
C         35.18560        71.35475        -0.22434
C         33.99915        72.04757         0.27062
C         35.26883        74.19089         0.27320
C         34.04355        73.49834         0.28523
C         37.76298        44.20992         0.06425
C         37.72173        45.62975        -0.06527
C         36.50221        46.32516        -0.22558
C         37.71358        48.46373        -0.47448
C         36.45782        47.73463        -0.41871
C         37.73757        49.86306        -0.63252
C         36.49992        50.59866        -0.95037
C         37.68399        52.76254        -0.90416
C         36.47108        52.07950        -0.80722
C         37.72357        54.23198        -1.29224
C         36.46392        54.95645        -0.88490
C         37.72616        57.07858        -0.64941
C         36.48233        56.32689        -0.68325
C         37.73261        58.45521        -0.61584
C         36.49749        59.23112        -0.39785
C         37.72331        61.41161        -0.88700
C         36.45449        60.63621        -0.89235
C         37.69907        62.81404        -0.99661
C         36.43859        63.55349        -1.00256
C         37.69040        65.71229        -1.23581
C         36.42967        64.92440        -0.95649
C         37.69344        67.12486        -0.70266
C         36.47444        67.80749        -0.50475
C         37.72252        69.96162        -0.35019
C         36.47061        69.23246        -0.31852
C         37.74443        71.35273        -0.25443
C         36.51512        72.13115        -0.31817
C         37.73867        74.14656         0.45634
C         36.52099        73.53700         0.14806
C         40.21649        39.94178         0.36822
C         40.21597        41.34036         0.30379
C         39.00050        42.07387         0.17811
C         40.23292        44.20327         0.18699
C         38.97931        43.48413         0.15121
C         40.20833        45.69065         0.40511
C         38.94639        46.37430        -0.04736
C         40.19103        48.49472        -0.27411
C         38.94684        47.76007        -0.26447
C         40.19338        49.90908        -0.45098
C         38.96108        50.57898        -0.62199
C         40.29136        52.75631        -0.92611
C         38.94970        52.00696        -0.97893
C         40.28246        54.25243        -0.92019
C         38.98004        54.97116        -0.84347
C         40.18486        57.07565        -0.11203
C         38.97197        56.31494        -0.62220
C         40.19963        58.49447        -0.70342
C         38.95557        59.26410        -0.28411
C         40.17410        61.37722        -0.81379
C         38.94212        60.69939        -0.77586
C         40.17810        62.80339        -0.91792
C         38.94241        63.53294        -0.96898
C         40.16694        65.64464        -0.72032
C         38.95571        64.94965        -0.94447
C         40.17862        67.06723        -0.49370
C         38.93595        67.80742        -0.52394
C         40.20851        69.90534        -0.15438
C         38.95847        69.21325        -0.34787
C         40.25020        71.32100        -0.05873
C         39.02507        72.13182        -0.38550
C         40.18763        74.08995         0.62647
C         38.99242        73.48310         0.29672
C         42.82642        35.59319         0.55940
C         42.76708        37.10233         0.52679
C         41.56868        37.72523         0.54253
C         42.73390        39.97367         0.64722
C         41.43965        39.19895         0.65348
C         42.68970        41.42550         0.39996
C         41.47282        42.08508         0.31597
C         42.70958        44.25018         0.12161
C         41.44544        43.52818         0.21819
C         42.68619        45.69415        -0.06396
C         41.46856        46.38074        -0.04599
C         42.65307        48.52557        -0.20702
C         41.42473        47.79447        -0.20084
C         42.63686        49.92961        -0.12443
C         41.44070        50.64774        -0.34518
C         42.71510        52.78384        -0.14371
C         41.48637        52.06115        -0.43552
C         42.76315        54.20243        -0.18521
C         41.55063        54.95500        -0.57293
C         42.67360        57.09811        -0.16128
C         41.51482        56.40187        -0.31368
C         42.69768        58.54842        -0.28185
C         41.46965        59.27249        -0.45414
C         42.65898        61.40064        -0.69081
C         41.42933        60.66135        -0.63358
C         42.64761        62.76761        -0.94438
C         41.41079        63.50800        -0.90707
C         42.61020        65.61305        -0.40029
C         41.40297        64.92237        -0.71684
C         42.60475        66.96413        -0.07041
C         41.38698        67.71959        -0.14992
C         42.62967        69.85249         0.22988
C         41.41114        69.15560         0.01468
C         42.66774        71.25222         0.24197
C         41.46299        71.99914         0.15519
C         42.64150        74.09374         0.73757
C         41.46415        73.43181         0.46091
C         45.19042        33.13858         2.27074
C         44.03500        33.73463         1.69277
C         45.22525        35.85285         1.44140
C         44.04165        35.05038         1.27573
C         45.24712        37.21625         1.09247
C         44.10323        37.77611         0.25089
C         45.11490        40.04648         1.08365
C         44.05234        39.33287         0.21764
C         45.14112        41.49835         0.67560
C         43.94783        42.14594         0.38452
C         45.22921        44.24252        -0.14746
C         43.91338        43.57266         0.16215
C         45.19047        45.74042        -0.18614
C         43.92317        46.41629        -0.23200
C         45.12978        48.57199        -0.36575
C         43.89292        47.82185        -0.27096
C         45.12703        49.90731        -0.08036
C         43.87077        50.59951         0.40455
C         45.10590        52.80541         0.44511
C         43.90996        52.09533         0.19294
C         45.13141        54.21945         0.41889
C         43.93414        54.91112         0.14149
C         45.19952        57.09612         0.02111
C         43.90264        56.40973         0.38399
C         45.18743        58.47323        -0.33692
C         43.92784        59.19405        -0.38371
C         45.21871        61.33281        -0.81285
C         43.92948        60.66334        -0.49440
C         45.22999        62.77001        -1.29297
C         43.91252        63.51747        -1.10317
C         45.11890        65.44089         0.10576
C         43.90897        64.94220        -0.64841
C         45.16990        66.94135         0.23135
C         43.86081        67.61104         0.38852
C         45.17441        69.80206         0.56075
C         43.87089        69.11005         0.53439
C         45.20610        71.21200         0.57916
C         43.96660        71.95514         0.27950
C         45.18564        74.03738         1.08335
C         43.95348        73.46415         0.52418
C         46.35239        33.85752         2.39333
C         47.61625        35.94038         2.03035
C         46.41338        35.22788         1.97883
C         47.66999        37.30825         1.66699
C         46.44686        37.96964         1.26745
C         47.65208        40.12292         1.19654
C         46.45732        39.37483         1.09811
C         47.65840        41.54502         1.07755
C         46.37260        42.26152         0.95385
C         47.68073        44.53202         0.72579
C         46.37057        43.73442         0.71730
C         47.66493        45.76595        -0.17092
C         46.40478        46.41475        -0.33542
C         47.65265        48.57624        -0.77773
C         46.33864        47.81605        -0.89195
C         47.65029        50.02571        -0.34291
C         46.39258        50.61410         0.19332
C         47.67629        52.78342         0.70953
C         46.37257        52.04269         0.63656
C         47.67425        54.28160         0.79114
C         46.34648        55.04101         0.86228
C         47.64473        57.04733        -0.06355
C         46.40379        56.40473         0.19370
C         47.62609        58.38800        -0.54474
C         46.42249        59.10799        -0.63928
C         47.68210        61.29790        -0.99411
C         46.41498        60.49651        -1.26183
C         47.64895        62.65224        -0.72333
C         46.43984        63.44883        -0.67909
C         47.60729        65.48493         0.11427
C         46.42329        64.78483        -0.27920
C         47.61593        66.84916         0.47940
C         46.35363        67.60118         0.49061
C         47.57452        69.73465         0.98709
C         46.36947        69.05153         0.70060
C         47.61509        71.15890         1.06085
C         46.40446        71.90733         0.86130
C         47.56385        74.01741         1.76774
C         46.35492        73.33165         1.15469
C         48.87453        38.04042         1.69143
C         50.11074        40.15369         1.34397
C         48.90362        39.42296         1.40374
C         50.12369        41.53074         1.04472
C         48.87143        42.25598         0.93809
C         50.11199        44.26968         0.27025
C         48.90526        43.64847         0.59957
C         50.11682        45.59143        -0.32483
C         48.89696        46.38743        -0.49712
C         50.09786        48.61863        -0.66908
C         48.93106        47.82371        -0.73876
C         50.10695        50.00600        -0.24178
C         48.91118        50.71494        -0.01459
C         50.15523        52.78186         0.43437
C         48.93089        52.07658         0.35244
C         50.16415        54.24105         0.47977
C         48.92799        54.98368         0.42748
C         50.16592        57.03431        -0.12223
C         48.90885        56.33930         0.10146
C         50.16728        58.33924        -0.58234
C         48.91088        59.02514        -0.92365
C         50.23986        61.21893        -0.79262
C         48.95164        60.55181        -1.12186
C         50.22140        62.68790        -0.58267
C         48.91634        63.40167        -0.53653
C         50.12608        65.38779         0.57206
C         48.84466        64.69739         0.20839
C         50.09203        66.84743         0.78200
C         48.84234        67.51426         0.78780
C         50.07797        69.64821         1.52538
C         48.79137        68.92934         1.23823
C         50.04758        71.13862         1.67091
C         48.83365        71.85958         1.36064
C         50.04357        73.99626         1.44719
C         48.86608        73.29974         1.49669
C         51.34430        42.22084         0.84547
C         52.61157        44.22281         0.18329
C         51.37125        43.55648         0.41375
C         52.63060        45.50301        -0.39235
C         51.35050        45.99554        -0.83002
C         52.58585        48.51444        -0.45328
C         51.38747        48.06831        -0.97200
C         52.56902        49.85207         0.15059
C         51.33691        50.65112         0.05464
C         52.65209        52.71886         0.32797
C         51.37381        52.03940         0.31528
C         52.65061        54.18478         0.57624
C         51.38248        54.93980         0.44076
C         52.65015        57.03985         0.03512
C         51.42366        56.33953         0.14311
C         52.69532        58.38349        -0.40412
C         51.45343        59.03148        -0.97625
C         52.65696        61.14833        -0.13610
C         51.39227        60.51673        -0.66170
C         52.65344        62.65105        -0.12024
C         51.44145        63.35267        -0.06425
C         52.61135        65.41915         0.52659
C         51.41215        64.72010         0.28669
C         52.57428        66.83800         0.82516
C         51.33299        67.51508         0.94604
C         52.64108        69.74975         1.08782
C         51.34389        68.99355         1.06285
C         52.65137        71.20246         1.38418
C         51.42290        71.92025         1.62469
C         52.60184        74.09048         1.23967
C         51.32198        73.32380         1.02787
C         53.80442        46.32715        -0.48982
C         55.05300        48.46281        -0.38634
C         53.81926        47.74188        -0.48852
C         55.13133        49.85448        -0.17765
C         53.90467        50.58024         0.23757
C         55.10289        52.75066        -0.14561
C         53.84706        52.04197         0.18938
C         55.13747        54.23668        -0.01901
C         53.94351        54.93199         0.56614
C         55.19863        57.06802         0.01731
C         53.93666        56.46245         0.59989
C         55.16858        58.40181        -0.35581
C         53.91427        59.07443        -0.47853
C         55.16561        61.26873        -0.35895
C         53.90044        60.54953        -0.79734
C         55.14182        62.64529        -0.06421
C         53.87237        63.33213         0.06482
C         55.07196        65.38574         0.64787
C         53.84456        64.71284         0.38111
C         54.94295        66.68426         1.20333
C         53.81446        67.50138         1.09768
C         55.22460        69.79649         1.08341
C         53.92495        68.98581         1.27568
C         55.09949        71.24589         0.66024
C         53.79196        71.96554         0.84497
C         55.06232        74.12751         1.00587
C         53.81355        73.44649         1.03665
C         56.33935        50.58214        -0.24112
C         57.58597        52.71668        -0.11791
C         56.38902        52.00207        -0.14741
C         57.66855        54.16028        -0.09328
C         56.43675        54.93938         0.01929
C         57.73788        57.05257         0.11766
C         56.42700        56.31610         0.01404
C         57.70053        58.47042        -0.41266
C         56.40687        59.12118        -0.85098
C         57.60319        61.30144        -0.48292
C         56.40016        60.59526        -0.49376
C         57.60431        62.72054        -0.32633
C         56.36118        63.40348        -0.02587
C         57.49439        65.61944        -0.10017
C         56.32551        64.78890         0.29359
C         57.62543        67.08136         0.11679
C         56.79526        67.80147         0.92735
C         57.58784        69.96104         0.22326
C         56.54061        69.20228         0.74014
C         57.55704        71.40010         0.34190
C         56.34669        72.04934         0.60692
C         57.53112        74.18775         0.70300
C         56.30570        73.47336         0.76978
C         58.87489        54.82479        -0.23038
C         60.17585        57.05845        -0.27244
C         58.89507        56.30234        -0.54394
C         60.16390        58.45050        -0.31063
C         58.87488        59.14278        -0.50576
C         60.12642        61.33545        -0.53568
C         58.87081        60.59309        -0.91889
C         60.09494        62.74825        -0.52181
C         58.81973        63.43048        -0.46240
C         60.02680        65.67283        -0.67685
C         58.75343        64.88544        -0.55524
C         60.04812        67.07504        -0.09996
C         58.75844        67.83719        -0.56260
C         60.00725        69.98966        -0.11118
C         58.81828        69.29223        -0.13145
C         60.01885        71.42075         0.11170
C         58.78838        72.11838         0.28290
C         60.02012        74.21984         0.49123
C         58.76684        73.53501         0.48246
C         61.35724        59.21859        -0.26289
C         62.56522        61.39048        -0.24949
C         61.36270        60.64312        -0.36097
C         62.57208        62.80245        -0.37410
C         61.32156        63.47010        -0.54012
C         62.56162        65.69078        -0.53110
C         61.32882        64.92487        -0.71390
C         62.50024        67.11924        -0.55746
C         61.31570        67.81691        -0.39711
C         62.51716        70.07600        -0.41867
C         61.32785        69.26483         0.01691
C         62.50043        71.43937        -0.16170
C         61.24722        72.13160         0.13179
C         62.50999        74.33450         0.43620
C         61.22412        73.54407         0.32961
C         63.77907        63.57522        -0.32100
C         65.00921        65.75304        -0.30421
C         63.79759        64.99098        -0.39355
C         65.03242        67.14872        -0.48723
C         63.76749        67.85375        -0.79333
C         65.04650        70.09173        -0.66901
C         63.76389        69.37202        -0.78988
C         64.94752        71.52245        -0.59946
C         63.72609        72.20139        -0.27143
C         64.95953        74.30871        -0.02804
C         63.75550        73.59778        -0.01234
C         66.20038        67.91753        -0.35503
C         67.51406        69.95250        -0.11795
C         66.25427        69.34314        -0.46863
C         67.86051        71.25853        -0.47352
C         66.07465        72.33769        -0.83321
C         67.47401        74.27424        -0.25082
C         66.17735        73.67862        -0.40846
C         68.78965        72.15643         0.10510
C         68.64518        73.55684         0.00617
O         41.15820        54.74827        -2.00880
O         51.38406        46.96717        -1.84071
O         30.14678        67.17209         2.19863
O         34.30758        63.31700        -2.22377
O         50.73092        71.65895         2.86382
O         49.36482        69.01021         2.61902
O         57.76794        65.34107        -1.55208
O         46.04681        43.27364         2.05499
O         54.89317        53.62196        -1.33491
O         29.16523        73.14595         1.90450
O         44.83591        61.24121         0.57415
O         27.14451        67.34895         2.53765
O         35.74296        60.66491        -2.18867
O         33.21956        54.31959         0.65446
O         49.71463        63.44699        -1.76550
O         47.83706        53.46929         2.00863
O         34.38739        56.80587        -1.76950
O         53.44605        54.41199         1.83817
O         48.96047        59.64145        -2.26962
O         49.35139        64.61600         1.58679
O         42.13739        39.61553         1.91553
O         35.85700        50.12936        -2.16084
O         39.74529        52.26017        -2.20515
O         33.30226        58.96364         1.17247
O         60.62822        65.45405        -1.95960
O         63.71246        68.58376        -2.05975
O         35.69101        71.88408        -1.49998
O         44.12537        72.90288        -0.82766
O         36.02591        58.90859         0.97705
O         53.27273        49.99459         1.42499
O         56.04340        67.16000         1.91115
O         51.90868        69.54973        -0.19247
O         47.61548        49.67725        -1.77069
O         43.70506        68.23674         1.71725
O         43.95066        64.63846        -2.07935
O         54.68621        69.48979         2.41233
O         54.22907        71.48454        -0.50115
O         67.13198        71.79205        -1.56476
O         46.41690        50.95993         1.64086
O         27.25694        64.72484         2.16915
O         58.82748        60.59344        -2.39861
H         58.84138        61.53017        -2.69306
O         34.77743        65.87047        -2.41339
H         35.61348        66.08667        -2.89059
O         25.53513        69.81024        -1.01814
H         26.26676        70.40008        -1.30097
O         42.88369        35.12372        -0.81592
H         43.14135        34.17792        -0.80199
O         56.35516        59.07513        -2.31333
H         57.20841        59.45841        -2.63743
O         40.04498        57.06461         1.33347
H         39.73603        57.95653         1.63333
O         44.66237        40.00517         2.46773
H         45.19451        40.64810         2.98190
O         46.29764        60.24444        -2.68075
H         46.27922        61.11814        -3.13824
O         37.64677        65.88887        -2.71984
H         37.81032        65.00680        -3.12007
O         52.75559        60.75462         1.27012
H         52.04367        61.20567         1.77090
O         47.79500        45.12446         2.06051
H         47.32401        44.51240         2.67588
O         46.13076        55.33672         2.27762
H         46.51052        54.57542         2.78089
O         44.45530        37.33510        -1.10231
H         44.01300        36.46224        -1.26328
O         37.76457        54.21570        -2.75163
H         38.55205        53.67571        -3.00641
O         39.11988        72.44636        -1.82330
H         38.99749        71.61016        -2.32105
O         58.67460        56.39095        -1.98958
H         59.40045        55.91063        -2.43953
O         51.57737        58.89074        -2.42352
H         50.73670        59.23610        -2.81361
O         26.54376        60.69960        -0.14464
H         26.62253        60.64054         0.82953
O         59.94833        66.91295         1.34271
H         60.41122        67.68251         1.76038
O         45.47672        62.74048        -2.72583
H         45.21514        63.62657        -3.07248
O         46.09160        47.63638        -2.31953
H         46.38107        48.46883        -2.75888
O         61.49716        69.18031         1.51720
H         61.38742        70.09145         1.87003
O         43.73778        56.57095         1.82836
H         44.54759        56.19580         2.26045
O         31.07933        65.22672        -1.92861
H         31.87204        64.98244        -2.45534
O         44.84888        64.96051         1.46817
H         45.54377        65.31728         2.06194
O         40.10192        58.34806        -2.14355
H         40.78986        57.71464        -2.44030
O         40.20209        45.85866         1.88077
H         41.02335        45.44449         2.22355
O         44.25358        39.78599        -1.13294
H         44.46389        38.99026        -1.68052
O         47.37145        74.09978         3.19512
H         47.48400        73.20192         3.57069
O         45.60644        43.80694        -1.49791
H         45.02431        44.26640        -2.13959
O         53.96619        56.87444         2.00074
H         53.54087        56.14059         2.50919
O         34.42558        64.73954         1.08443
H         34.36069        65.60358         1.54435
O         31.91965        72.32239         2.56819
H         31.12724        72.77035         2.93918
O         43.79962        50.38863         1.85923
H         44.69811        50.60047         2.21700
O         53.81406        60.73342        -2.22662
H         54.51372        60.17159        -2.63441
O         62.39061        75.58301        -0.26031
H         62.27516        75.39120        -1.21342
O         38.95340        59.42676         1.17741
H         38.01860        59.46762         1.48204
O         51.19770        73.09945        -0.42016
H         51.99649        72.61330        -0.72406
O         58.04084        57.12292         1.53889
H         57.25154        57.47442         2.00242
O         58.66755        67.82993        -1.98760
H         58.39992        66.91894        -2.26742
H         22.97039        75.27278         0.57541
H         25.43928        75.25612         0.34738
H         27.73356        75.11878        -0.41065
H         30.53193        75.18879        -0.37313
H         32.79507        75.25406         0.05264
H         35.25552        75.28101         0.42452
H         37.73674        75.17043         0.86217
H         40.18293        75.11685         1.02444
H         42.61097        75.13070         1.10567
H         45.15459        75.07072         1.46172
H         47.62326        75.07074         1.39574
H         50.04127        75.08615         1.60130
H         52.57295        75.17919         1.39888
H         55.06125        75.22014         1.13629
H         57.52077        75.27924         0.84147
H         60.03853        75.30886         0.64502
H         62.65017        74.60385         1.52245
H         64.96035        75.36730         0.26950
H         67.51396        75.36547        -0.10965
H         22.01328        69.40682         1.00552
H         20.81202        71.53408         0.82772
H         20.82360        74.01673         0.70285
H         24.38695        65.11240         0.55266
H         23.17289        67.25918         0.86760
H         27.52184        61.51190        -1.75529
H         25.59953        62.98922        -0.02519
H         29.22308        56.53529        -0.63695
H         27.98330        58.71609        -0.65687
H         31.89711        52.12767        -1.51333
H         30.42171        54.52140        -1.26200
H         34.30327        47.89864        -0.24177
H         32.99936        50.10052        -0.61415
H         36.81460        43.65142         0.04486
H         35.55749        45.76129        -0.21387
H         39.27933        39.38927         0.20063
H         38.04818        41.52254         0.14881
H         41.88974        35.18305         1.03239
H         40.64934        37.12153         0.62638
H         45.14536        32.09106         2.59894
H         43.12211        33.13104         1.57512
H         47.25409        33.39255         2.81732
H         48.53386        35.43375         2.36458
H         49.81207        37.52500         1.94811
H         51.06644        39.62524         1.47879
H         52.29172        41.67461         0.96657
H         53.54930        43.73200         0.48268
H         54.77254        45.82507        -0.32950
H         55.99052        47.90490        -0.53595
H         57.28135        50.03356        -0.39598
H         58.53260        52.15541        -0.15753
H         59.79966        54.24230        -0.37489
H         61.13549        56.52034        -0.21255
H         62.31804        58.69619        -0.13840
H         63.51504        60.85789        -0.09567
H         64.73407        63.04078        -0.20833
H         65.95550        65.22449        -0.11492
H         67.13998        67.39334        -0.12259
H         68.19997        69.36804         0.51406
H         69.62575        71.75878         0.69923
H         69.51083        74.15592         0.33218
