         615
 CSIRO Nanostructure Databank - Neutral Graphene Oxide Data Set
C         23.35896        70.09123        -2.39853
C         23.34016        71.51394        -2.33524
C         22.17541        72.25701        -2.63438
C         23.33867        74.35202        -2.21987
C         22.18647        73.65575        -2.56930
C         25.69790        65.75226        -1.83643
C         25.60717        67.14564        -1.70982
C         24.50596        67.92092        -2.14423
C         25.71262        70.05669        -1.68704
C         24.50410        69.34277        -2.07079
C         25.72101        71.50616        -1.67712
C         24.53057        72.22526        -1.97032
C         25.73539        74.33965        -1.56907
C         24.54239        73.65446        -1.91842
C         28.21915        61.44356        -1.62308
C         28.12459        62.83504        -1.34253
C         26.94146        63.57656        -1.63176
C         28.01929        65.66735        -1.00509
C         26.87386        64.99592        -1.46881
C         27.98014        67.11499        -0.77204
C         26.72807        67.88282        -1.08538
C         28.06467        70.01816        -0.95527
C         26.83798        69.34605        -1.27063
C         28.14489        71.46012        -1.22163
C         26.90136        72.21489        -1.38407
C         28.13649        74.32201        -0.90180
C         26.92848        73.64173        -1.30707
C         30.64447        57.07482        -1.65080
C         30.14135        58.28712        -1.15999
C         29.34899        59.29284        -1.72951
C         30.46626        61.31819        -0.62540
C         29.33224        60.65974        -1.25889
C         30.46954        62.75253        -0.55705
C         29.28020        63.48059        -0.82294
C         30.51350        65.64209        -0.70242
C         29.20107        64.92969        -0.43483
C         30.53128        67.13957        -0.61687
C         29.25747        67.88334        -0.74326
C         30.41497        70.04101        -0.16109
C         29.21264        69.34874        -0.52295
C         30.50623        71.43266        -0.22266
C         29.41791        72.20186        -0.84546
C         30.49861        74.29939        -0.12050
C         29.32324        73.65791        -0.60293
C         33.08262        52.86513        -1.16870
C         33.06048        54.27360        -1.02265
C         31.90542        55.02597        -1.34904
C         32.93035        57.07433        -0.46873
C         31.79858        56.40466        -1.09696
C         32.92439        58.47657        -0.16531
C         31.72830        59.22791        -0.10080
C         32.87661        61.33449         0.07610
C         31.67297        60.63968        -0.23738
C         32.86782        62.76032         0.08953
C         31.69443        63.44529        -0.23694
C         33.09623        65.67657        -0.26299
C         31.78670        64.90423        -0.49622
C         32.91492        67.09563         0.28582
C         31.63455        67.77803         0.15656
C         32.82412        69.98719         0.67315
C         31.55521        69.28694         0.40676
C         32.81473        71.41648         0.63828
C         31.67151        72.12738         0.24785
C         32.88153        74.27548         0.47661
C         31.66521        73.59017         0.21861
C         35.41469        48.53818        -0.66829
C         35.37207        49.94637        -0.57578
C         34.27189        50.69174        -0.98609
C         35.44451        52.83670        -0.56970
C         34.24958        52.13073        -0.90140
C         35.44521        54.23080        -0.41634
C         34.23229        54.96434        -0.57844
C         35.36460        57.05386         0.09288
C         34.17417        56.37357        -0.32227
C         35.33857        58.46665         0.36048
C         34.12610        59.18561         0.14777
C         35.23312        61.26577         0.83810
C         34.07893        60.59490         0.35912
C         35.13579        62.70320         1.13435
C         34.03665        63.48926         0.54890
C         35.25250        65.57752         1.02194
C         34.09401        64.87132         0.54579
C         35.18113        67.03524         1.21492
C         33.98376        67.80007         0.81640
C         35.27345        69.95524         1.06391
C         33.99195        69.24567         0.95029
C         35.30342        71.38841         1.01371
C         34.01150        72.14807         1.20009
C         35.31000        74.25486         0.77971
C         34.07625        73.59597         0.76713
C         37.81753        44.24775        -0.49900
C         37.75742        45.62388        -0.28287
C         36.59035        46.39602        -0.50491
C         37.80329        48.50708         0.01513
C         36.57467        47.79577        -0.35508
C         37.81876        49.90653         0.11667
C         36.51867        50.67649         0.09288
C         37.89345        52.77157         0.09213
C         36.72789        52.04616        -0.53475
C         37.86398        54.20123         0.09395
C         36.67843        54.92878        -0.10269
C         37.77377        57.02419         0.60631
C         36.62565        56.35001         0.15876
C         37.66246        58.35662         1.20919
C         36.46566        59.15431         0.88652
C         37.64206        61.28733         1.48264
C         36.43110        60.55846         1.11911
C         37.68952        62.67832         1.45607
C         36.43954        63.45366         1.45618
C         37.71283        65.61534         1.26220
C         36.45046        64.91040         1.28320
C         37.71399        67.01954         1.16257
C         36.49993        67.80237         1.35126
C         37.75129        69.94042         0.94012
C         36.49178        69.25620         1.09528
C         37.76167        71.38634         0.87062
C         36.51899        72.08771         0.94082
C         37.76012        74.22694         0.86341
C         36.53825        73.54617         0.88947
C         40.27088        39.97827        -0.91631
C         40.27157        41.41802        -0.89067
C         39.06380        42.12736        -0.75281
C         40.30288        44.19785        -0.38027
C         39.05470        43.51966        -0.51938
C         40.30380        45.57991         0.12235
C         38.96467        46.32138         0.20102
C         40.21866        48.45939         0.49820
C         39.00544        47.78722         0.21002
C         40.20825        49.87000         0.64554
C         39.02047        50.59682         0.41948
C         40.27939        52.75431         0.75640
C         39.03462        52.06123         0.45355
C         40.33383        54.16624         0.67632
C         39.13888        54.89945         0.25979
C         40.30377        57.04182         1.09981
C         39.09388        56.41231         0.52494
C         40.24480        58.39798         1.47165
C         38.93423        59.05258         1.66124
C         40.18404        61.29091         1.81567
C         38.87952        60.54199         1.81785
C         40.14957        62.73322         1.54409
C         38.94115        63.42070         1.45323
C         40.19881        65.54870         1.20966
C         38.93587        64.85892         1.28091
C         40.20365        66.97598         0.77645
C         38.91837        67.74987         0.76990
C         40.22226        69.92800         0.41766
C         38.94549        69.22396         0.82931
C         40.22979        71.39995         0.72501
C         38.99485        72.09307         0.80296
C         40.23110        74.22526         0.80620
C         39.00602        73.53953         0.84250
C         42.64506        35.70449        -0.55291
C         42.60800        37.12357        -0.50554
C         41.43561        37.81765        -0.76678
C         42.72154        39.91643        -1.26348
C         41.43843        39.24028        -0.93330
C         42.74794        41.43029        -1.24853
C         41.50355        42.13559        -0.90319
C         42.78944        44.22390        -0.50160
C         41.52273        43.52507        -0.63085
C         42.75674        45.74298        -0.52716
C         41.51649        46.39213         0.05929
C         42.71695        48.51663         0.50328
C         41.49299        47.74040         0.40225
C         42.71321        49.85232         0.87394
C         41.41904        50.54873         1.24350
C         42.70147        52.73724         1.10525
C         41.47318        52.04217         1.01582
C         42.74616        54.15151         1.05454
C         41.54010        54.88151         0.91812
C         42.74862        56.99011         1.48669
C         41.52825        56.32043         1.10432
C         42.70877        58.43557         1.65255
C         41.46774        59.13556         1.60761
C         42.66766        61.25988         1.44063
C         41.46469        60.55880         1.64754
C         42.68051        62.72254         1.39095
C         41.42357        63.44417         1.87577
C         42.66638        65.62038         1.76416
C         41.38160        64.89605         1.49465
C         42.70822        67.04195         1.23045
C         41.47591        67.75981         0.83040
C         42.67978        69.93041         1.01902
C         41.48338        69.23409         0.87901
C         42.70218        71.37396         0.86042
C         41.45530        72.08645         0.77861
C         42.70700        74.20753         0.72571
C         41.47259        73.53380         0.78400
C         45.09557        32.89147        -0.70817
C         43.87727        33.57249        -0.67423
C         45.08661        35.65267        -0.07744
C         43.82277        34.96480        -0.42551
C         45.10301        37.15175         0.01345
C         43.82067        37.95541        -0.12819
C         45.21862        39.98023        -0.66422
C         44.03660        39.12348        -1.13923
C         45.25929        41.34149        -0.74412
C         44.08161        42.17885        -1.22374
C         45.23978        44.16934        -0.15441
C         43.99724        43.54207        -0.54256
C         45.20710        45.56428         0.33883
C         43.95563        46.36776         0.14619
C         45.22607        48.41442         0.79452
C         44.02642        47.88079         0.07353
C         45.23571        49.84690         1.25818
C         43.93145        50.58313         1.04969
C         45.19234        52.67451         1.33384
C         43.94852        51.97498         1.20053
C         45.17219        54.09191         1.84948
C         44.07586        54.88451         1.04655
C         45.17871        56.94209         2.18137
C         43.97618        56.31927         1.49808
C         45.21225        58.54635         2.17727
C         43.91835        59.17138         1.65993
C         45.13677        61.18140         0.77494
C         43.89420        60.54720         1.37869
C         45.07750        62.71233         0.66962
C         43.82765        63.40365         1.09706
C         45.13415        65.65482         0.98458
C         43.85388        64.88466         1.12257
C         45.18524        67.03215         1.59740
C         43.90910        67.82644         1.64000
C         45.14550        69.95159         1.25160
C         43.93669        69.27311         1.34133
C         45.17796        71.35232         0.91385
C         43.92815        72.06121         0.82484
C         45.17679        74.16485         0.57880
C         43.94453        73.50540         0.69990
C         46.31982        33.55514        -0.54787
C         47.56928        35.65370        -0.18857
C         46.36780        34.94059        -0.28950
C         47.61664        37.07168        -0.11903
C         46.39435        37.84605        -0.18433
C         47.68843        39.91901        -0.20799
C         46.43170        39.21899        -0.37945
C         47.72009        41.28744        -0.11114
C         46.58276        42.08921        -0.69704
C         47.67579        44.16242         0.20930
C         46.45594        43.49322        -0.14682
C         47.68908        45.58605         0.46482
C         46.46718        46.29718         0.52789
C         47.66562        48.44234         1.09678
C         46.40805        47.69747         0.82545
C         47.69022        49.88375         0.83406
C         46.38137        50.59378         0.57192
C         47.61916        52.73572         1.02990
C         46.39937        52.03982         1.01401
C         47.66894        54.11997         1.36884
C         46.50160        54.82810         1.72284
C         47.67656        56.98971         1.60667
C         46.50317        56.26427         1.80962
C         47.68391        58.43162         1.29467
C         46.40050        59.18755         1.45208
C         47.70507        61.29582         0.94156
C         46.42989        60.71069         1.52756
C         47.67653        62.70594         0.58399
C         46.37481        63.47651         0.53862
C         47.66849        65.66125         1.19549
C         46.46228        65.02691         0.54227
C         47.71506        67.02163         1.40360
C         46.47139        67.77431         1.62234
C         47.71250        69.93416         1.16234
C         46.44014        69.27782         1.51605
C         47.66944        71.30224         0.77985
C         46.40982        72.01056         0.71774
C         47.61555        74.11337         0.26185
C         46.41941        73.45321         0.51073
C         48.85766        37.74373        -0.13559
C         50.14422        39.84578        -0.27310
C         48.92617        39.14943        -0.13412
C         50.24192        41.24961        -0.10409
C         48.97058        41.93108         0.45712
C         50.02584        44.18029         0.71877
C         48.88934        43.44826         0.37871
C         50.15406        45.58398         0.54140
C         48.93128        46.27566         0.58426
C         50.19562        48.44729         0.53503
C         48.98324        47.70771         0.89772
C         50.15246        49.84710         0.51416
C         48.88408        50.54250         0.67939
C         50.13329        52.74233         0.47953
C         48.83349        52.02129         0.55465
C         50.20041        54.16153         0.85912
C         48.98207        54.79826         1.41476
C         50.16943        57.07068         1.12214
C         48.97801        56.31594         1.55385
C         50.17909        58.46694         1.14526
C         48.94932        59.19054         1.22310
C         50.21038        61.33752         1.05133
C         48.93387        60.60650         1.04006
C         50.21071        62.74639         1.16378
C         48.98482        63.48407         0.85457
C         50.18856        65.62560         1.67111
C         48.88345        64.87212         1.37052
C         50.15494        67.09099         1.58830
C         48.95582        67.77070         1.51696
C         50.16206        69.93535         1.16256
C         48.92408        69.22627         1.30839
C         50.10804        71.32530         0.81603
C         48.89973        71.97805         0.55347
C         50.13210        74.15428         0.16681
C         48.87655        73.36104        -0.05902
C         51.48721        41.85058        -0.35211
C         52.67579        44.13354        -0.37652
C         51.83322        43.16106         0.11126
C         52.62655        45.54768        -0.00685
C         51.42631        46.25522         0.36489
C         52.58594        48.39622        -0.05136
C         51.41364        47.69098         0.27443
C         52.47715        49.84008        -0.47454
C         51.35613        50.59784         0.21860
C         52.58479        52.75603         0.14924
C         51.38696        51.97797         0.32939
C         52.58422        54.13320         0.27928
C         51.37786        54.84607         0.66517
C         52.65911        57.03877         0.83010
C         51.34872        56.35234         0.52182
C         52.64107        58.51860         0.87782
C         51.44589        59.19669         1.01162
C         52.69048        61.36162         1.18329
C         51.44876        60.64012         1.08730
C         52.66637        62.77765         1.27715
C         51.42610        63.49011         1.31746
C         52.66304        65.64150         1.32204
C         51.44390        64.90456         1.42040
C         52.67448        67.06179         1.33621
C         51.45010        67.82757         1.78228
C         52.65065        69.90794         1.14171
C         51.41438        69.25285         1.29471
C         52.65259        71.37677         1.02083
C         51.35416        72.11377         0.87218
C         52.58958        74.19362         0.31887
C         51.35319        73.53142         0.41349
C         53.79991        46.29510        -0.22591
C         55.04927        48.43564        -0.34913
C         53.81787        47.70653        -0.21089
C         55.08886        49.82616        -0.36611
C         53.81094        50.58295        -0.47800
C         55.12192        52.68076         0.27062
C         53.83804        52.05076        -0.22075
C         55.13487        54.16860         0.01961
C         53.81073        54.90439        -0.18279
C         55.10873        57.08551         0.05775
C         53.89096        56.30420         0.42255
C         55.16222        58.55521         0.36882
C         53.89871        59.27560         0.70653
C         55.19078        61.35870         1.29228
C         53.96096        60.68973         1.14210
C         55.11808        62.78338         1.48858
C         53.89237        63.49623         1.32326
C         55.12723        65.65540         1.19858
C         53.89895        64.92623         1.25834
C         55.12506        67.06582         1.15903
C         53.89375        67.76716         1.21939
C         55.13663        69.94078         1.10603
C         53.89208        69.21895         1.18914
C         55.09435        71.37738         0.85050
C         53.91771        72.04679         0.68241
C         55.13537        74.18650         0.21177
C         53.85332        73.41877         0.05885
C         56.30330        50.56162        -0.38911
C         57.54420        52.68769        -0.38585
C         56.35877        51.96379        -0.23570
C         57.60098        54.11001        -0.21909
C         56.32963        54.82366        -0.02063
C         57.63132        57.02049         0.18598
C         56.36536        56.30663        -0.11935
C         57.62725        58.50734         0.26372
C         56.46590        59.19019         0.62329
C         57.80459        61.26054         0.84283
C         56.53645        60.54239         1.32859
C         58.08313        62.55172         1.26234
C         56.25147        63.61768         1.75024
C         57.64439        65.62506         0.90023
C         56.36418        64.94309         1.38136
C         57.71161        67.07876         1.37285
C         56.36870        67.82096         1.58046
C         57.61473        69.95669         0.83720
C         56.37333        69.27149         1.14264
C         57.59151        71.35992         0.61048
C         56.37726        72.15082         1.01461
C         57.57777        74.22048         0.23423
C         56.32093        73.55211         0.44396
C         58.77525        54.81852        -0.44719
C         60.04924        57.06521        -0.53822
C         58.91902        56.24845        -0.12740
C         60.03469        58.46994        -0.42588
C         58.86935        59.17642         0.05505
C         60.04145        61.34024        -0.18517
C         58.88404        60.59616         0.17523
C         60.09295        62.75781        -0.00968
C         59.03718        63.42511         0.67844
C         60.11909        65.59079         0.39295
C         58.99531        64.86830         0.80974
C         60.29381        67.06371         0.79312
C         58.97434        67.82923         1.05124
C         59.92000        69.89449        -0.03009
C         58.84909        69.25757         0.64911
C         59.84627        71.28637        -0.29089
C         58.72284        72.03148         0.12690
C         59.96416        74.16580        -0.29367
C         58.73782        73.49774         0.03315
C         61.15634        59.23741        -0.84180
C         62.29992        61.39987        -1.14785
C         61.17624        60.64664        -0.74206
C         62.34140        62.80683        -1.00021
C         61.22622        63.50483        -0.42319
C         62.42249        65.62107        -0.60877
C         61.26836        64.91497        -0.18675
C         62.59317        67.08935        -0.31069
C         61.27386        67.80794        -0.09286
C         62.07865        69.77303        -1.40033
C         61.10029        69.11024        -0.44204
C         62.18661        71.26116        -1.13312
C         60.87583        72.01243        -1.12917
C         62.24485        74.14517        -1.19649
C         61.05425        73.47711        -0.78965
C         63.48748        63.54316        -1.36822
C         64.69584        65.65722        -1.63013
C         63.53220        64.93500        -1.18582
C         64.71459        67.04366        -1.70130
C         63.54715        67.77977        -1.25538
C         64.53499        69.86032        -2.10045
C         63.43514        69.11920        -1.49950
C         64.50940        71.23707        -2.17838
C         63.41976        71.99471        -1.54445
C         64.52876        74.13608        -2.14292
C         63.36935        73.47082        -1.67861
C         65.79238        67.75712        -2.31395
C         66.86344        69.87403        -2.98421
C         65.73379        69.13165        -2.50516
C         66.83603        71.25488        -3.12002
C         65.51654        71.98263        -3.01345
C         66.83426        74.11081        -2.98114
C         65.63707        73.44886        -2.65899
C         67.99019        72.01181        -3.45507
C         67.97050        73.40290        -3.41152
O         42.41799        67.20600        -0.17996
O         49.24904        55.43762         2.71336
O         35.49915        63.03540         2.50502
O         45.06335        36.34363         1.24140
O         55.64101        56.82853        -1.27778
O         58.40259        56.47502         1.26673
O         63.14793        71.59820        -0.11560
O         44.20882        65.51957        -0.14474
O         44.22273        45.81442         1.44878
O         35.69872        67.42978         2.52295
O         53.52988        56.40322         1.83110
O         58.58698        67.48136         2.45319
O         39.56579        45.72154         1.39062
O         31.15194        68.32354         1.43594
O         49.27221        52.55162        -0.75574
O         39.51443        67.19401        -0.50576
O         30.15860        67.68691        -1.92050
O         29.16544        71.81129        -2.23500
O         45.27622        58.96604         3.51916
O         39.48656        60.96281         3.09278
O         45.57712        63.11516        -0.64952
O         46.73303        58.70298         0.14558
O         48.53791        63.18015        -0.49858
O         44.49462        67.28735         2.85384
O         53.87701        51.56061        -1.59374
O         27.04131        67.48957         0.30530
O         42.60079        40.67127        -2.50261
O         38.06782        58.37677         2.63624
O         39.38556        55.86963        -0.81516
O         57.35617        63.02356         2.35569
O         44.38726        38.57733        -2.36409
O         31.24615        65.16934        -1.86341
O         46.56006        68.61547         2.82048
O         49.39423        64.99480         2.73548
O         30.55204        58.56416         0.17718
O         51.99940        72.01636         2.19995
O         48.44732        48.01142         2.24529
O         51.10177        43.50509         1.28201
O         54.39589        59.24411        -0.71459
O         56.18582        67.89398         3.03354
H         57.05098        68.17207         3.41373
O         52.02636        49.76924        -1.86491
H         52.37306        50.58279        -2.30433
O         33.72738        65.84104        -1.56524
H         32.99859        65.84139        -2.23196
O         56.73217        60.23186         2.74108
H         56.95567        61.07834         3.18990
O         45.16841        60.64357        -0.55757
H         45.53941        61.34131        -1.14929
O         40.25123        69.82146        -1.05452
H         40.16210        68.85699        -1.26285
O         55.09605        52.50075         1.72221
H         55.89270        52.93225         2.09749
O         42.75621        46.06302        -1.94653
H         43.13327        46.96846        -2.06094
O         37.10520        51.80767        -1.92543
H         37.25898        52.67749        -2.35049
O         44.76649        53.97940         3.22073
H         44.80381        54.88131         3.63547
O         46.35373        61.20548         2.87112
H         45.89622        60.48581         3.41571
O         41.49454        63.36294         3.36039
H         41.05345        62.53168         3.64931
O         43.55020        38.57314         1.15070
H         43.79861        37.91603         1.83998
O         64.95690        71.97938        -4.38638
H         65.17556        71.11194        -4.78897
O         48.82589        73.13075        -1.53186
H         47.97220        72.68674        -1.72527
O         51.60431        67.92589         3.25005
H         50.84128        68.43701         3.59595
O         29.04556        65.00536         1.02678
H         28.12170        64.76262         1.24976
O         57.35006        65.82802        -0.53441
H         57.22429        64.94882        -0.95109
O         48.97242        41.61098         1.88379
H         49.78110        42.02238         2.26287
O         44.57872        54.87133        -0.32608
H         43.96348        55.39604        -0.88108
O         53.76955        73.12297        -1.40260
H         53.68651        73.98127        -1.87110
O         56.50711        72.32704         2.46838
H         55.67090        72.72072         2.79760
O         42.78610        65.67211         3.19718
H         42.42403        64.83873         3.58473
O         45.53707        49.87238         2.67398
H         44.80519        49.43807         3.15897
O         46.64580        65.41878        -0.84010
H         45.90194        65.01040        -1.34258
O         60.96688        66.95884         2.08833
H         60.25714        66.87479         2.77104
O         41.27717        50.37790         2.69741
H         41.12323        49.42480         2.87132
O         53.64125        55.06208        -1.61386
H         52.84329        55.62528        -1.75487
O         36.13763        50.90071         1.47788
H         36.01036        50.02764         1.90412
O         44.24045        48.25196        -1.33546
H         44.71924        49.11794        -1.35286
O         60.36171        72.01253        -2.49600
H         60.36965        71.07319        -2.80666
O         51.22364        56.54123        -0.94564
H         50.35127        56.19225        -1.23031
O         63.33370        67.14743         0.95453
H         62.68576        66.97576         1.68199
O         44.94485        56.59003         3.56798
H         45.03629        57.46963         4.06767
O         46.10916        50.53156        -0.86067
H         46.79344        51.06104        -1.32527
O         61.47993        69.59603        -2.73655
H         62.17623        69.77872        -3.40349
O         44.37659        42.51715        -2.62109
H         43.98661        41.78031        -3.15579
O         33.79786        72.19028         2.65729
H         32.95404        72.66426         2.81631
O         46.99071        42.27898        -2.10009
H         46.15194        42.45895        -2.60508
H         23.32881        75.45066        -2.17875
H         25.72562        75.43866        -1.51690
H         28.08977        75.41385        -0.76883
H         30.51119        75.39797        -0.05066
H         32.91303        75.36553         0.32362
H         35.34138        75.34107         0.60142
H         37.75983        75.32730         0.84120
H         40.23163        75.32575         0.79885
H         42.71816        75.30734         0.68735
H         45.19398        75.26061         0.47866
H         47.60731        75.20342         0.10786
H         50.11834        75.21900        -0.11437
H         52.59009        75.25737         0.02732
H         55.14689        75.23134        -0.14183
H         57.58196        75.31038         0.07823
H         60.01594        75.25843        -0.16827
H         62.26339        75.24567        -1.15299
H         64.56916        75.23486        -2.07503
H         66.90163        75.19870        -2.83220
H         22.43970        69.56286        -2.69381
H         21.25475        71.72813        -2.91976
H         21.26759        74.21216        -2.80248
H         24.84801        65.20388        -2.27039
H         23.61490        67.41265        -2.54310
H         27.37138        60.94986        -2.12176
H         26.06521        63.04234        -2.02714
H         30.15701        56.59979        -2.51523
H         28.73151        59.05617        -2.60880
H         32.16513        52.34211        -1.47635
H         31.05005        54.50332        -1.80250
H         34.53349        48.00239        -1.05441
H         33.38062        50.17592        -1.37593
H         36.89665        43.70779        -0.76652
H         35.67302        45.88736        -0.83803
H         39.30906        39.46227        -0.77292
H         38.10962        41.58270        -0.80373
H         41.71517        35.17307        -0.81177
H         40.48241        37.27462        -0.86679
H         45.09817        31.81178        -0.91366
H         42.94318        33.02975        -0.88016
H         47.26024        32.99437        -0.65025
H         48.52035        35.10218        -0.24993
H         49.78790        37.15578        -0.14333
H         51.05996        39.27547        -0.49355
H         52.24950        41.24932        -0.87426
H         53.38285        43.86530        -1.17618
H         54.73142        45.76040        -0.46428
H         55.99270        47.86910        -0.35779
H         57.24580        50.00802        -0.52569
H         58.46464        52.15820        -0.67616
H         59.66835        54.27418        -0.79062
H         60.88821        56.57952        -1.05824
H         62.04004        58.71751        -1.24053
H         63.17371        60.88168        -1.56977
H         64.35387        63.02186        -1.80063
H         65.54507        65.08028        -2.02616
H         66.69207        67.20188        -2.61961
H         67.80724        69.33373        -3.15706
H         68.92651        71.48340        -3.68785
H         68.88765        73.96075        -3.64768
