         272
 CSIRO Nanostructure Databank - Neutral Graphene Oxide Data Set
C        -11.37276         0.64501         0.33721
C        -10.13638         1.45826         0.40030
C         -8.89224         0.85115         1.00705
C         -7.58134         1.45685         0.66776
C         -6.39772         0.86405         1.44736
C         -5.06093         1.60960         1.18122
C         -3.78056         0.91037         1.60248
C         -2.46398         1.64648         1.35710
C         -1.18429         0.87831         1.61714
C          0.08218         1.37137         0.95182
C          1.36456         0.79558         1.52301
C          2.67175         1.45902         1.24030
C          3.95551         0.70673         1.35352
C          5.12998         1.36547         1.14124
C          6.43894         0.66837         1.24957
C          7.72090         1.41921         1.10686
C          9.00115         0.69806         0.72333
C         10.12518         1.47929         0.07257
C         11.10727         0.72240        -0.73832
C         -9.95064         2.55333        -0.55397
C         -8.72758         3.10663        -0.77978
C         -7.52808         2.57162        -0.13674
C         -6.20867         3.08889        -0.61746
C         -4.98919         2.73857         0.19242
C         -3.64974         3.20707        -0.32815
C         -2.42186         2.90090         0.51613
C         -1.07948         3.60153         0.15716
C          0.10970         2.63928         0.16419
C          1.45561         3.22646        -0.24396
C          2.71002         2.61537         0.28224
C          4.01065         3.40784         0.18106
C          5.11944         2.84793         1.04981
C          6.39475         3.61564         1.14281
C          7.60463         2.85148         0.47450
C          8.88699         3.65733         0.29190
C         10.01790         2.93801        -0.08517
C         -8.64648         4.18952        -1.84407
C         -7.40744         5.04340        -1.72926
C         -6.14859         4.27516        -1.54007
C         -4.84972         5.00762        -1.88975
C         -3.60078         4.31860        -1.33336
C         -2.32918         5.11725        -1.45290
C         -1.04619         4.33908        -1.21343
C          0.21518         5.24774        -1.23431
C          1.51072         4.63188        -0.80339
C          2.75597         5.53595        -0.58077
C          3.81745         4.89609         0.31999
C          5.02708         5.72331         0.60030
C          6.44572         5.24459         1.01192
C          7.56951         5.78974         0.12877
C          8.78105         5.04788         0.02455
C         -7.42793         6.39195        -1.78295
C         -6.16675         7.22808        -1.90185
C         -4.95714         6.45154        -1.40523
C         -3.74525         7.20062        -0.97771
C         -2.40847         6.59460        -1.28629
C         -1.20358         7.42567        -0.90328
C          0.12794         6.76689        -1.24161
C          1.29192         7.61693        -0.82406
C          2.37361         6.92703         0.00547
C          3.63333         7.78779         0.18961
C          4.95791         7.09134        -0.01737
C          6.20719         7.85741        -0.31361
C          7.49828         7.13293        -0.23148
C         -6.23434         8.60734        -1.28490
C         -5.16196         9.29035        -0.85952
C         -3.77587         8.71515        -0.65667
C         -2.67070         9.43794        -1.36657
C         -1.28813         8.85810        -1.51565
C         -0.12403         9.65844        -0.91561
C          1.06642         9.08838        -0.61353
C          2.26776         9.99011        -0.29991
C          3.58439         9.26607         0.01504
C          4.87437         9.95963        -0.29054
C          6.06748         9.33529        -0.38552
C        -11.43432        -0.58832         0.84734
C        -10.26271        -1.39881         1.36343
C         -8.93227        -0.59233         1.48447
C         -7.61315        -1.32495         1.61308
C         -6.29613        -0.67666         1.14732
C         -5.13153        -1.36943         1.95831
C         -3.80254        -0.56071         1.92335
C         -2.51516        -1.36201         1.89735
C         -1.19547        -0.61363         1.81300
C          0.08935        -1.35844         1.32338
C          1.34554        -0.68434         1.85739
C          2.61868        -1.47542         1.82035
C          3.93419        -0.75680         1.63411
C          5.14112        -1.50804         1.13914
C          6.33846        -0.72085         0.68837
C          7.52515        -1.36111         0.06575
C          8.91220        -0.87337         0.54403
C          9.99025        -1.46094        -0.36306
C         11.04529        -0.61836        -0.90815
C        -10.19716        -2.60209         0.39062
C         -9.17234        -3.26682        -0.09973
C         -7.54388        -2.81665         1.85421
C         -6.29810        -3.54390         1.42214
C         -5.01595        -2.79319         1.42500
C         -3.85401        -3.39742         1.05616
C         -2.55481        -2.80857         1.49804
C         -1.26659        -3.44738         0.96270
C         -0.01467        -2.86151         1.70394
C          1.27801        -3.69397         1.51176
C          2.61159        -2.98509         1.63748
C          3.83701        -3.72973         1.16023
C          4.99782        -2.91155         0.64273
C          6.17167        -3.54625        -0.03522
C          7.45883        -2.80978        -0.44078
C          8.74221        -3.61906        -0.12198
C          9.91608        -2.79367        -0.62562
C         -8.33471        -4.11549        -0.67633
C         -7.73570        -5.32216         0.06327
C         -6.38589        -4.85299         0.69535
C         -5.16013        -5.36894        -0.03512
C         -3.83288        -4.72509         0.36914
C         -2.56391        -5.52920         0.35498
C         -1.31256        -4.99971         1.04198
C         -0.03602        -5.58604         0.27749
C          1.23935        -5.09302         0.95698
C          2.49420        -5.75958         0.51125
C          3.69983        -5.10275         0.58216
C          4.97098        -5.78914         0.23968
C          6.24950        -5.03974         0.02812
C          7.40646        -5.70639        -0.64497
C          8.60954        -4.98811        -0.74183
C         -7.45934        -6.46712        -0.88390
C         -6.48187        -7.46696        -0.53382
C         -5.17747        -6.90230         0.09071
C         -3.91186        -7.71984         0.08305
C         -2.59473        -7.02664         0.24256
C         -1.32207        -7.70262        -0.13859
C         -0.09280        -7.09902         0.07100
C          1.16274        -7.78503        -0.18568
C          2.38881        -7.15865         0.08342
C          3.67812        -7.81204        -0.11640
C          4.87237        -7.16954        -0.25292
C          6.05837        -7.90997        -0.87335
C          7.27123        -7.02410        -1.07894
C         -6.31017        -8.71934        -1.30505
C         -5.17948        -9.44401        -1.29623
C         -3.98370        -9.17222        -0.40879
C         -2.68779        -9.60651        -1.04308
C         -1.44049        -9.01395        -0.77254
C         -0.27016        -9.65092        -1.18807
C          1.10133        -9.22015        -0.76207
C          2.06141        -9.35189        -1.95625
C          3.39031        -9.30956        -1.71504
C          4.54083        -9.15230        -2.60004
C          5.69503        -8.55654        -2.21986
O          1.93132        -1.10995         3.09113
O         -2.95529        -4.79198        -0.82665
O         -5.57888        -1.44888         3.30468
H         -5.85363        -0.52857         3.57246
O          4.01434         5.50086         1.61473
O          5.98240        -5.61442         1.33912
O         -3.26967        -7.64811         1.40102
O         -2.57954         2.97771         1.95669
O          1.96956         1.68379         2.50392
O         -8.63444         3.55532        -3.13587
H         -7.79688         3.04045        -3.19057
O         -6.18178        -7.47303         0.91924
O         -2.57264        -2.42447         2.89165
O         -0.10659         1.36524        -0.49774
O         -3.80982         0.44015         2.97980
O         -4.75534         5.00515        -3.32576
H         -4.57632         4.07979        -3.60275
O          1.75279         6.71149         1.28091
H          2.21835         7.26225         1.95082
O         -0.96908         0.30170         2.92399
O          7.18131         2.61638        -0.79823
O         -8.38673        -3.40386         2.52069
O         -0.01405        -5.13017        -1.05105
O          8.84374        -3.87675         1.28410
H          9.01433        -2.99095         1.74926
O          3.73664        -9.19868        -0.34691
O         -5.15480         2.99587         1.60931
O          6.62761        -0.55813        -0.75553
O          1.20652        -4.86952         2.39418
O          5.70560         3.31704         2.32252
O         -1.36410        -5.44905         2.37698
H         -0.65586        -4.99818         2.90288
O         -9.74336         1.74727         1.78653
O          7.24024         1.07373         2.41090
O          5.40474         7.16875        -1.39193
O         -8.25123        -0.70178         2.76045
O         -2.31203         5.99889        -2.61499
O         -3.45846         2.92357        -1.74417
O         10.10926         1.10330         1.51769
O         -0.24312        -2.92147         3.11650
H          0.52339        -2.49744         3.57047
O         -3.52722         8.79519         0.78688
H         -4.16568         8.17684         1.21183
O         -1.16534         7.53403         0.52807
H         -1.97066         8.02719         0.84216
O          1.04727         7.30393        -2.24816
O          1.14001         4.71140        -2.22117
O          2.21162         2.26336        -1.04576
O          3.58019         8.64498         1.36083
O          2.47610        10.86697        -1.41472
H          2.54967        10.33133        -2.23123
O         -6.65347         0.96871         2.81084
O          5.03687        -3.03369        -0.81983
O         -8.59688        -5.79183         1.09377
H         -8.41179        -5.27278         1.91517
O         -6.24754        -4.86513         2.11024
O          9.04836        -1.37262         1.83608
O         -0.95398         3.36155        -2.24297
H         -0.05879         3.42537        -2.65387
O         -6.11804         2.90680        -2.08002
O          7.44167        -2.74766        -1.88042
H          6.72317        -2.11871        -2.12339
O          6.73388         5.69797         2.24602
O         -4.58879         6.50673         0.01098
O          1.43309       -10.17558         0.27566
H          2.40243       -10.09448         0.44967
O          3.37907         5.73458        -1.84779
H          2.66747         5.81087        -2.52704
O        -10.63594        -1.89380         2.64477
H         -9.86581        -2.38995         3.01632
O          3.52947        -3.63287         2.57174
O          4.94791        -1.27339         2.55657
O         -1.27109        -3.06326        -0.41764
H         -0.80533        -3.79316        -0.95554
O          4.54809         3.22069        -1.14461
H          3.82236         2.91087        -1.73577
O         -0.83472         4.61450         1.13860
H         -1.23644         4.32339         1.99244
O          6.49953        -8.96506         0.01791
H          6.65408        -8.56555         0.90012
O         -6.16590        -0.92843        -0.25908
H         -5.37455        -0.47518        -0.61621
O         -5.96117         7.46470        -3.32015
H         -5.68073         6.61247        -3.73203
O          0.29670        -1.15079        -0.08068
H         -0.38365        -1.65060        -0.60167
O         -5.39249        -5.05869        -1.43188
H         -4.50829        -4.93842        -1.85780
O         -1.06496         8.81867        -2.93765
H         -0.16903         8.43279        -3.09367
O         -4.13346       -10.03169         0.75185
H         -3.68323        -9.57416         1.50116
H         11.80931        -1.11470        -1.52659
H         11.90997         1.29785        -1.22343
H         10.85790         3.46311        -0.57063
H          9.68208         5.57245        -0.33979
H          8.39782         7.64141        -0.61892
H          6.97747         9.92870        -0.56305
H          4.82764        11.05260        -0.40893
H          2.01596        10.64527         0.57298
H         -0.22619        10.75331        -0.85713
H         -2.96333        10.14422        -2.16081
H         -5.29629        10.32164        -0.49726
H         -7.20968         9.11701        -1.32691
H         -8.39200         6.91038        -1.90764
H         -9.56127         4.83012        -1.79877
H        -10.82113         2.89718        -1.13272
H        -12.27788         1.12510        -0.06525
H        -12.39494        -1.12550         0.85190
H        -11.19883        -2.99613         0.13108
H         -7.92036        -3.88905        -1.67507
H         -7.99776        -6.54174        -1.84067
H         -7.14267        -9.01654        -1.96094
H         -5.13027       -10.35776        -1.90797
H         -2.68886       -10.59052        -1.53863
H         -0.34520       -10.61756        -1.71021
H          1.66111        -9.39981        -2.97843
H          4.44441        -9.50292        -3.63985
H          6.48958        -8.49422        -2.98228
H          8.15323        -7.51824        -1.51860
H          9.49416        -5.48236        -1.17578
H         10.68691        -3.27888        -1.24635
