         600
 CSIRO Nanostructure Databank - Neutral Graphene Oxide Data Set
C         22.94668        27.36185         0.03915
C         22.94493        28.73485         0.12720
C         23.03477        31.64188         0.68257
C         23.04510        33.04941         0.70878
C         23.01812        35.97595         0.68675
C         23.04232        37.36185         0.82769
C         23.12792        40.29393         0.40683
C         23.11819        41.63084         0.43433
C         22.96833        44.59968         0.66357
C         23.00831        45.91792         0.34559
C         25.36442        24.54024        -0.23714
C         24.17733        25.22366        -0.12941
C         25.40634        27.35492        -0.06976
C         24.16817        26.64322        -0.05771
C         25.38697        28.76953         0.06714
C         24.16707        29.46776         0.16264
C         25.35558        31.67101        -0.09885
C         24.14978        30.91955         0.28424
C         25.41525        33.12480         0.11501
C         24.20122        33.80075         0.43347
C         25.44909        35.95513         0.43456
C         24.20799        35.25175         0.51492
C         25.46597        37.37706         0.59503
C         24.24630        38.06801         0.79142
C         25.52251        40.26415         0.95944
C         24.20634        39.53102         1.16139
C         25.51447        41.66079         1.00626
C         24.16827        42.35419         1.24952
C         25.50170        44.59534         0.87018
C         24.18991        43.87355         1.05940
C         25.48033        45.99163         0.39548
C         24.25101        46.65541         0.24355
C         25.44131        48.73177        -0.20488
C         24.25517        48.03773        -0.08409
C         27.91113        23.11221        -0.56798
C         27.83735        24.49284        -0.57437
C         26.61142        25.22931        -0.32129
C         27.90219        27.37043        -0.32349
C         26.63976        26.63675        -0.23344
C         27.92257        28.76613        -0.12352
C         26.68111        29.49662         0.32320
C         27.91849        31.67403        -0.08345
C         26.66313        30.91821        -0.19270
C         27.89719        33.08642        -0.03372
C         26.65052        33.81070         0.07324
C         27.90943        35.94734         0.23351
C         26.67443        35.23892         0.25005
C         27.92243        37.37980         0.37948
C         26.71521        38.09250         0.57516
C         27.95193        40.23894         0.62705
C         26.72638        39.53043         0.72497
C         27.95154        41.66871         0.65482
C         26.72723        42.39500         0.80577
C         27.94274        44.52548         0.48022
C         26.74813        43.81982         0.71658
C         27.94807        45.96026         0.29384
C         26.70849        46.67965         0.20253
C         27.94932        48.79684        -0.14126
C         26.69912        48.08262        -0.05868
C         27.99931        50.21415        -0.30271
C         30.34556        23.04425        -0.94062
C         29.13490        22.40939        -0.72280
C         30.31958        24.49172        -1.22434
C         29.03094        25.25769        -0.97785
C         30.34788        27.39161        -0.66515
C         29.10792        26.70075        -0.65794
C         30.36265        28.79730        -0.40617
C         29.13323        29.49480        -0.20661
C         30.36478        31.64739        -0.10978
C         29.13241        30.94102        -0.10046
C         30.36812        33.08170        -0.05531
C         29.13974        33.80028        -0.00166
C         30.37888        35.93756         0.02094
C         29.13887        35.22976         0.08881
C         30.38481        37.38017         0.13926
C         29.17744        38.08576         0.33791
C         30.41240        40.22341         0.47718
C         29.19023        39.52011         0.47572
C         30.41952        41.66812         0.51135
C         29.17777        42.38472         0.52612
C         30.40832        44.51656         0.32235
C         29.18066        43.80475         0.44188
C         30.40986        45.93922         0.19429
C         29.16804        46.65747         0.14457
C         30.42133        48.78813        -0.13117
C         29.17670        48.08505        -0.04114
C         30.44482        50.21403        -0.27917
C         29.19156        50.89565        -0.35630
C         32.83580        20.24662        -0.49512
C         31.65217        20.92570        -0.64044
C         32.84460        23.03208        -0.86347
C         31.62070        22.34088        -0.82891
C         32.88568        24.48165        -1.15177
C         31.60686        25.26084        -1.27102
C         32.81526        27.38952        -0.82582
C         31.60677        26.71434        -0.92635
C         32.85275        28.79595        -0.49447
C         31.60678        29.51146        -0.32149
C         32.83141        31.65391         0.08377
C         31.58617        30.91262        -0.14005
C         32.85419        33.10679        -0.10723
C         31.60904        33.80529        -0.12152
C         32.84875        35.96107        -0.48786
C         31.58658        35.22389        -0.13631
C         32.85824        37.39093        -0.02238
C         31.63918        38.08650         0.13706
C         32.88339        40.19635         0.36855
C         31.65472        39.50696         0.34707
C         32.91499        41.65150         0.76959
C         31.62865        42.38224         0.49230
C         32.87609        44.51379         0.26996
C         31.64203        43.79799         0.36651
C         32.87361        45.92273         0.14396
C         31.63893        46.64165         0.10283
C         32.88767        48.75938        -0.15567
C         31.65134        48.06671        -0.05108
C         32.91132        50.16820        -0.38815
C         31.68740        50.90645        -0.38730
C         32.95017        52.98404        -0.69258
C         31.78858        52.35624        -0.38829
C         35.38071        18.78832        -0.26880
C         35.31357        20.23911        -0.26929
C         34.08722        20.93079        -0.46871
C         35.31043        23.08236        -0.57629
C         34.08187        22.35680        -0.62881
C         35.31677        24.52988        -0.70866
C         34.13449        25.22025        -0.91277
C         35.36396        27.39282        -0.76906
C         34.11257        26.69712        -1.23001
C         35.34380        28.78726        -0.59887
C         34.08903        29.46855        -0.42198
C         35.38157        31.64521        -0.28804
C         34.15168        30.87995        -0.02761
C         35.35073        33.07555        -0.22146
C         34.10769        33.79035        -0.15319
C         35.33188        35.92294        -0.10907
C         34.12334        35.21588        -0.18928
C         35.34115        37.36505        -0.03279
C         34.09191        38.07088         0.04845
C         35.34591        40.18450         0.12182
C         34.10035        39.49113         0.21037
C         35.30029        41.63433        -0.08956
C         34.11072        42.38865         0.24218
C         35.36450        44.50417         0.14268
C         34.12076        43.78217         0.18568
C         35.34462        45.94196         0.17203
C         34.11252        46.64077         0.07424
C         35.36570        48.76100        -0.11278
C         34.12773        48.05560        -0.05988
C         35.38660        50.16156        -0.43085
C         34.15406        50.82446        -0.61690
C         35.43442        52.88715        -1.32857
C         34.10087        52.18153        -1.25211
C         35.43558        54.14163        -1.94688
C         37.70981        18.86366         0.59322
C         36.51450        18.12594         0.04565
C         37.76012        20.28312         0.07183
C         36.53299        20.96835        -0.17613
C         37.77769        23.09840        -0.35745
C         36.53230        22.39061        -0.37412
C         37.79140        24.53243        -0.47625
C         36.57810        25.24313        -0.63000
C         37.81831        27.38523        -0.53879
C         36.58095        26.67196        -0.66833
C         37.81704        28.80330        -0.54653
C         36.57899        29.51652        -0.53694
C         37.82960        31.68032        -0.85825
C         36.56607        30.94038        -0.51637
C         37.83243        33.11886        -0.40881
C         36.58638        33.80352        -0.25903
C         37.81068        35.93659        -0.05129
C         36.57994        35.21683        -0.11256
C         37.81371        37.35777         0.05117
C         36.56286        38.06619         0.04767
C         37.83152        40.21671         0.13596
C         36.57025        39.50318         0.07614
C         37.86732        41.63800         0.16478
C         36.64740        42.39360        -0.11794
C         37.81449        44.48208         0.47208
C         36.59991        43.82064         0.17189
C         37.75747        45.93280         0.68825
C         36.54849        46.66762         0.30028
C         37.84188        48.78929         0.08211
C         36.58718        48.07208         0.12149
C         37.87276        50.16750        -0.33616
C         36.63830        50.84508        -0.58486
C         37.90238        52.85605        -1.33840
C         36.65905        52.22139        -1.03542
C         37.82534        54.02834        -2.10050
C         36.63383        54.71064        -2.36850
C         40.26271        16.02723         0.67226
C         39.05271        16.73604         0.69910
C         40.22490        18.80790         0.19797
C         39.01309        18.10712         0.45249
C         40.23064        20.23499         0.03962
C         38.98078        20.96355        -0.02239
C         40.24366        23.08760        -0.23995
C         38.99350        22.38548        -0.23045
C         40.26438        24.51472        -0.29582
C         39.03493        25.23716        -0.41089
C         40.28866        27.36628        -0.35413
C         39.05060        26.66166        -0.43927
C         40.29202        28.79404        -0.35108
C         39.06540        29.51865        -0.45958
C         40.29436        31.63769        -0.34996
C         39.08167        30.93029        -0.48266
C         40.30785        33.07894        -0.33771
C         39.04523        33.80623        -0.32555
C         40.26487        35.94994        -0.04359
C         39.05195        35.23512        -0.13292
C         40.27540        37.34503         0.16955
C         39.04222        38.06354         0.16997
C         40.28335        40.20813         0.40447
C         39.05049        39.49983         0.24686
C         40.29686        41.63211         0.53836
C         39.05990        42.34818         0.42652
C         40.28370        44.50392         0.65284
C         39.03966        43.78502         0.53373
C         40.30130        45.91590         0.63614
C         39.05902        46.69352         0.74115
C         40.28734        48.78997         0.29489
C         39.05438        48.11208         0.34106
C         40.30724        50.18615        -0.03826
C         39.12615        50.83851        -0.45403
C         40.43758        53.04033        -0.60763
C         39.26512        52.17503        -1.16601
C         40.62444        54.41757        -0.91322
C         39.83949        55.17255        -1.85350
C         40.93525        57.27005        -1.33962
C         39.97217        56.53203        -2.06096
C         42.72240        15.96089         0.37187
C         41.46256        16.68078         0.38389
C         42.67685        18.77605        -0.15043
C         41.45454        18.08643         0.13397
C         42.67425        20.17001        -0.20994
C         41.45542        20.91545        -0.09317
C         42.67977        23.08415        -0.04904
C         41.46583        22.36804        -0.15400
C         42.72047        24.49472        -0.06450
C         41.50304        25.21764        -0.22053
C         42.76219        27.34713        -0.23751
C         41.52461        26.65124        -0.26766
C         42.76728        28.78477        -0.25274
C         41.52582        29.49992        -0.27244
C         42.76188        31.63316        -0.17110
C         41.52890        30.92245        -0.25352
C         42.75758        33.05599        -0.12917
C         41.52092        33.75796        -0.22493
C         42.70248        35.84144         0.48791
C         41.57201        35.26102        -0.35009
C         42.74254        37.34576         0.39756
C         41.52835        38.05641         0.34364
C         42.72152        40.19964         0.69486
C         41.51679        39.49153         0.46366
C         42.74876        41.61402         0.80437
C         41.52097        42.33665         0.72220
C         42.72893        44.50223         0.82967
C         41.52319        43.78698         0.73515
C         42.74334        45.91858         0.75168
C         41.51741        46.63205         0.62130
C         42.71459        48.76429         0.74851
C         41.51073        48.06682         0.55514
C         42.62901        50.23988         0.83749
C         41.49759        50.94581         0.22245
C         42.72625        53.08578         0.41167
C         41.51872        52.35432         0.04773
C         42.74636        54.50783         0.34804
C         41.71885        55.17283        -0.32203
C         42.90939        57.32785         0.12114
C         41.81931        56.60354        -0.50927
C         43.88286        16.56487         0.03347
C         45.25881        18.71849        -0.51838
C         43.91977        17.98653        -0.36646
C         45.26332        20.22115        -0.44528
C         43.94194        20.92402        -0.34443
C         45.21886        23.05023         0.31776
C         43.91984        22.32172         0.17934
C         45.20244        24.51412         0.17758
C         43.98391        25.20126         0.02643
C         45.24170        27.31403        -0.10810
C         44.00301        26.62819        -0.11382
C         45.26290        28.75633        -0.53235
C         43.98492        29.49768        -0.24716
C         45.23914        31.63094        -0.14759
C         43.99775        30.91145        -0.18314
C         45.23724        33.04605        -0.06362
C         44.00174        33.76933        -0.01920
C         45.22328        35.89590         0.21473
C         44.01794        35.17170         0.17509
C         45.21892        37.32551         0.41855
C         43.98305        38.00639         0.54440
C         45.28526        40.20424         0.84717
C         43.96528        39.44091         0.86535
C         45.22921        41.67086         0.72844
C         44.01082        42.32271         0.86239
C         45.24688        44.53345         0.76379
C         44.00369        43.79206         1.20011
C         45.23041        45.92740         0.74605
C         43.97134        46.65113         0.83081
C         45.22629        48.77666         1.01935
C         43.93896        48.05563         0.90961
C         45.23457        50.27217         1.04077
C         43.93645        51.01709         1.04096
C         45.20583        53.13598         0.66706
C         43.93978        52.42540         0.69244
C         45.20780        54.54685         0.78755
C         43.87510        55.22545         1.06342
C         43.88246        56.70858         0.81556
C         47.67769        18.75609         0.00847
C         46.54127        18.05337        -0.22261
C         47.71840        20.20440         0.07591
C         46.50951        20.92759        -0.02084
C         47.69917        23.05595         0.37987
C         46.49971        22.32589         0.16484
C         47.65302        24.48317         0.43640
C         46.44608        25.20475         0.23734
C         47.70842        27.36051         0.19854
C         46.46064        26.63860         0.11675
C         47.71492        28.79109         0.05779
C         46.50356        29.49966        -0.12688
C         47.71465        31.63280        -0.03101
C         46.48592        30.91101        -0.10838
C         47.70582        33.05941        -0.03585
C         46.47061        33.76932        -0.01580
C         47.68909        35.91330        -0.01300
C         46.46881        35.19414         0.05942
C         47.66994        37.35547         0.04768
C         46.46067        38.05877         0.34085
C         47.69327        40.21123         0.25204
C         46.49886        39.47704         0.45080
C         47.69378        41.67367         0.33858
C         46.47380        42.38746         0.54432
C         47.68368        44.53512         0.34096
C         46.46808        43.81227         0.54822
C         47.68742        45.95667         0.37210
C         46.45813        46.66683         0.56211
C         47.68139        48.80227         0.48668
C         46.46134        48.06713         0.61792
C         47.68218        50.22161         0.47286
C         46.37411        50.94702         0.29449
C         47.66214        53.11921         0.52091
C         46.42515        52.42879         0.55260
C         47.63592        54.53305         0.63634
C         46.43446        55.22415         0.77354
C         50.20834        20.25047         0.20985
C         48.95237        20.91642         0.25135
C         50.18370        23.02789         0.57777
C         48.95072        22.33762         0.41695
C         50.16673        24.45615         0.95112
C         48.86594        25.23620         0.79836
C         50.14483        27.40033         0.54623
C         48.92012        26.69449         0.52565
C         50.18198        28.80154         0.27366
C         48.94868        29.50724         0.12369
C         50.18750        31.64166        -0.03222
C         48.95018        30.92685         0.01857
C         50.17624        33.06512        -0.12059
C         48.93582        33.77399        -0.07697
C         50.15251        35.89246        -0.32217
C         48.92437        35.19807        -0.12636
C         50.08281        37.34514        -0.55772
C         48.86072        38.08890        -0.16778
C         50.17301        40.21161        -0.06224
C         48.88135        39.49222        -0.05379
C         50.18528        41.70809         0.07681
C         48.89294        42.40955         0.16644
C         50.14436        44.55293         0.00137
C         48.91142        43.82684         0.15718
C         50.14696        45.96057         0.07937
C         48.91499        46.67338         0.27080
C         50.15369        48.81750         0.31734
C         48.91692        48.09194         0.34591
C         50.13758        50.21729         0.45841
C         48.90089        50.93719         0.46510
C         50.14253        53.04000         0.13475
C         48.89967        52.37858         0.40252
C         51.39464        20.94758         0.26859
C         52.68284        23.09249         0.47315
C         51.41983        22.35725         0.44770
C         52.70449        24.49810         0.63069
C         51.45998        25.20880         0.97165
C         52.68913        27.40974         0.47567
C         51.43010        26.72678         0.82803
C         52.67304        28.80479         0.24095
C         51.42128        29.51228         0.17928
C         52.65245        31.64600        -0.17779
C         51.42260        30.92721        -0.01144
C         52.62004        33.04942        -0.34646
C         51.40189        33.77794        -0.26655
C         52.63265        35.94609        -0.51260
C         51.38116        35.21208        -0.39945
C         52.64635        37.35455        -0.58062
C         51.38383        38.08743        -0.70636
C         52.58832        40.22921        -0.62773
C         51.41030        39.54126        -0.50582
C         52.54333        41.70112        -0.95848
C         51.38798        42.45748        -0.33549
C         52.58612        44.60424        -0.56147
C         51.37736        43.84184        -0.30031
C         52.57943        45.98069        -0.42154
C         51.37656        46.70217        -0.05593
C         52.63881        48.84983         0.03878
C         51.39076        48.09890         0.10425
C         52.66173        50.23506         0.31874
C         51.41157        50.97901         0.72531
C         51.33378        52.38140         0.17833
C         55.11656        23.11774         0.32741
C         53.92307        22.42485         0.31214
C         55.15259        24.53044         0.43476
C         53.91786        25.23444         0.54847
C         55.14079        27.38776         0.37152
C         53.90872        26.68254         0.49492
C         55.14181        28.81245         0.23480
C         53.90772        29.51741         0.11796
C         55.14520        31.61806        -0.14863
C         53.91134        30.93158        -0.10184
C         55.18779        33.04572        -0.49779
C         53.86010        33.78765        -0.63581
C         55.09800        35.95231        -0.47032
C         53.87400        35.25356        -0.51320
C         55.09451        37.38448        -0.48215
C         53.85848        38.08837        -0.56549
C         55.05707        40.24901        -0.61384
C         53.85051        39.52456        -0.65128
C         55.04568        41.71088        -0.66180
C         53.85475        42.40813        -0.79513
C         55.11395        44.56836        -0.74442
C         53.82287        43.88312        -1.09659
C         55.12470        46.02860        -0.82929
C         53.80179        46.77323        -0.69594
C         55.08978        48.87913        -0.27602
C         53.85127        48.18933        -0.29170
C         55.07640        50.25690         0.02563
C         53.88666        50.91541         0.30932
C         57.65518        24.58000         0.47663
C         56.40131        25.25495         0.43606
C         57.61770        27.40091         0.39902
C         56.38483        26.67640         0.40533
C         57.62105        28.82849         0.33839
C         56.37732        29.53091         0.22267
C         57.61156        31.68519         0.13551
C         56.37603        30.94571         0.07224
C         57.60770        33.12096         0.07535
C         56.39344        33.82689        -0.20815
C         57.54453        35.99686        -0.14121
C         56.35558        35.24684        -0.29295
C         57.54960        37.40964        -0.30596
C         56.31175        38.12139        -0.44739
C         57.53562        40.26641        -0.46360
C         56.30072        39.54642        -0.51581
C         57.53231        41.70498        -0.47485
C         56.30430        42.41846        -0.56895
C         57.56032        44.57273        -0.44336
C         56.30472        43.85751        -0.57427
C         57.57177        46.00629        -0.41352
C         56.36684        46.75477        -0.53457
C         57.60803        48.82402        -0.25656
C         56.35932        48.15500        -0.40110
C         58.84276        25.27460         0.49534
C         60.07005        27.42837         0.47507
C         58.85287        26.69704         0.45733
C         60.06511        28.80690         0.44075
C         58.85005        29.54053         0.37023
C         60.02394        31.74106         0.50273
C         58.83878        30.99098         0.32934
C         60.00367        33.13166         0.49482
C         58.81655        33.83764         0.26540
C         60.02664        36.02259        -0.21420
C         58.80900        35.34449         0.36135
C         60.00539        37.35355        -0.45874
C         58.78098        38.12358        -0.35844
C         59.98581        40.29558        -0.36033
C         58.77177        39.55134        -0.40820
C         59.97962        41.67227        -0.34157
C         58.77070        42.41437        -0.38962
C         59.99913        44.59145        -0.21460
C         58.77822        43.86031        -0.35089
C         60.01452        45.96371        -0.16369
C         58.80349        46.70527        -0.25871
C         58.79412        48.12314        -0.21025
O         25.91287        31.18208        -1.39941
O         43.04622        50.73344         2.15802
O         29.46240        24.89655        -2.34070
O         54.39140        46.54384        -2.03297
O         35.95201        42.02441        -1.34859
O         45.50193        49.56742         2.26586
O         54.58741        33.31716        -1.82154
O         33.55636        31.18332         1.28124
O         38.31120        46.39702         1.97450
O         32.32859        24.87671        -2.49896
O         50.57984        37.71543        -1.90046
O         49.35435        24.78239         2.11699
O         44.47797        22.52442         1.51779
O         24.87475        44.48175         2.21815
O         38.97941        54.51287        -2.73738
O         44.69455        39.73704         2.11226
O         44.55889        18.19135        -1.68138
O         50.42730        40.84412         1.26954
O         51.55583        26.07003         2.14418
O         44.64065        20.83685        -1.63127
O         44.03032        43.82538         2.67868
H         44.77639        43.26007         2.97306
O         33.74689        51.93787        -2.67180
H         32.90709        51.42971        -2.67367
O         52.23111        41.70802        -2.40169
H         52.63001        42.53152        -2.78296
O         23.81374        42.17900         2.65554
H         24.31409        42.87278         3.14750
O         58.84193        35.62721         1.81630
H         58.83707        36.60348         1.91705
O         45.33629        28.69711        -2.01940
H         45.34339        29.62322        -2.34423
O         43.64748        55.04319         2.50209
H         42.74510        55.36921         2.70231
O         53.69943        43.98922        -2.57835
H         53.84476        44.95059        -2.78488
O         41.88736        35.56292        -1.74250
H         41.14388        35.24752        -2.29735
O         45.98879        50.78263        -1.12067
H         46.67254        51.22532        -1.66715
O         51.50300        51.12119         2.19302
H         50.68091        51.56653         2.49075
O         37.84512        31.73865        -2.33870
H         38.68800        32.16428        -2.60428
O         37.48389        18.98100         2.04598
H         36.64894        19.48072         2.16933
O         39.70630        51.82355        -2.52004
H         39.69506        52.65807        -3.04401
O         42.39010        35.52503         1.87747
H         43.07824        35.93351         2.44360
O         33.06348        41.64658         2.24458
H         32.26345        41.21647         2.61561
O         32.82429        36.05477        -1.97331
H         32.01190        36.54788        -2.21824
O         34.16988        26.80348        -2.69725
H         33.47067        26.19093        -3.04384
O         26.79084        29.64264         1.78294
H         26.84212        28.74346         2.17043
O         23.88190        39.51548         2.57592
H         23.80072        40.45847         2.87302
H         21.99865        26.80504         0.03236
H         21.98803        29.27222         0.17364
H         22.11251        31.12266         0.97812
H         22.11881        33.55960         1.00313
H         22.05131        35.45784         0.73181
H         22.10193        37.90016         1.00926
H         22.36343        39.74146        -0.16070
H         22.34779        42.20068        -0.10602
H         22.00698        44.06664         0.65932
H         22.07592        46.44989         0.10419
H         25.34340        23.44469        -0.30283
H         23.22270        24.67909        -0.10291
H         25.40265        49.80629        -0.42830
H         23.29639        48.55958        -0.21569
H         27.01935        22.51299        -0.34017
H         27.06472        50.78634        -0.37612
H         29.10034        21.32205        -0.57412
H         29.17564        51.98727        -0.47945
H         32.80677        19.15632        -0.36928
H         30.71585        20.35327        -0.63437
H         33.01284        54.08168        -0.65718
H         30.91579        52.94949        -0.07817
H         34.49900        18.21690        -0.59181
H         34.48257        54.62980        -2.19206
H         36.53086        17.02745         0.00250
H         36.65257        55.63775        -2.95487
H         40.26878        14.94880         0.88583
H         38.12962        16.19471         0.94816
H         41.03039        58.35367        -1.49463
H         39.34373        57.02336        -2.81446
H         42.70945        14.89170         0.63059
H         42.93023        58.42107        -0.00780
H         44.81216        15.98068        -0.01716
H         44.67061        57.30344         1.29972
H         48.60718        18.19480         0.17415
H         46.58685        16.95696        -0.28081
H         48.57617        55.10079         0.63935
H         46.46193        56.31755         0.87999
H         50.24906        19.16082         0.08405
H         50.12874        54.10099        -0.15478
H         52.33331        20.38454         0.19026
H         52.25899        52.92520        -0.05822
H         56.05002        22.54989         0.22193
H         53.95492        21.33434         0.19438
H         56.01111        50.83071         0.05834
H         53.92261        51.98288         0.56503
H         57.68587        23.48309         0.51288
H         57.64261        49.91883        -0.18630
H         59.79912        24.73405         0.54078
H         61.02257        26.88086         0.51811
H         61.02664        29.33692         0.45287
H         60.97972        31.23288         0.68488
H         60.93872        33.67702         0.68252
H         60.96416        35.45994        -0.32805
H         60.92425        37.85431        -0.79583
H         60.94799        39.76897        -0.31207
H         60.94394        42.19366        -0.28881
H         60.95337        44.05474        -0.13757
H         60.96520        46.50361        -0.04754
H         59.74803        48.66073        -0.11064
