         324
 CSIRO Nanostructure Databank - Neutral Graphene Oxide Data Set
C          1.60625         2.13591         2.48455
C          1.53323         3.55162         2.31284
C          2.73925         1.46159         2.12502
C          2.57579         4.26870         1.77585
C          1.61568         6.49863         2.53579
C          1.75297         7.83822         2.68799
C          2.46411         5.74155         1.60007
C          2.79856         8.56097         2.00611
C          1.05031        10.59079        -0.56783
C          1.01967        11.97103        -0.39176
C          2.28224         9.90964        -0.60646
C          2.21048        12.72966        -0.44319
C          1.11802        14.88059         0.23254
C          1.18658        16.24188         0.65689
C          2.19856        14.19011        -0.29176
C          2.36585        16.96209         0.63810
C          2.49725        18.33466         1.07723
C          3.86000         2.15207         1.55233
C          3.78618         3.59723         1.32889
C          5.01677         1.44870         1.25454
C          4.83609         4.27371         0.73351
C          3.56147         6.49330         0.87910
C          3.66028         7.95137         1.11653
C          4.77378         5.74105         0.31481
C          4.86302         8.70577         0.63638
C          3.50439        10.61806        -0.44801
C          3.44004        12.02902        -0.56784
C          4.79678         9.97558        -0.14169
C          4.66971        12.74131        -0.98456
C          3.42408        14.95506        -0.58319
C          3.52403        16.36553        -0.04912
C          4.69167        14.24222        -0.95335
C          4.88181        16.88712         0.26300
C          3.68433        19.00103         1.05166
C          4.96138        18.29932         0.81064
C          6.16429         2.09846         0.72538
C          6.01991         3.50144         0.17721
C          7.36707         1.43245         0.62621
C          7.32787         4.27349         0.24977
C          6.11903         6.43853         0.53818
C          6.15803         7.93042         0.56987
C          7.28504         5.72668         0.34091
C          7.33969         8.63963         0.03885
C          5.98788        10.61008        -0.47657
C          5.95391        11.96496        -1.06947
C          7.28500         9.97283        -0.33879
C          7.24064        12.74837        -1.19324
C          6.00264        14.94021        -0.82767
C          6.06359        16.26391        -0.35185
C          7.18975        14.21755        -1.08641
C          7.39145        16.87748         0.03980
C          6.21666        19.03310         0.56883
C          7.35672        18.38828         0.17667
C          8.58227         2.12592         0.30132
C          8.52023         3.57522         0.17953
C          9.79740         1.45883         0.23843
C          9.80335         4.26315        -0.08347
C          8.58599         6.45395         0.38986
C          8.61462         7.95223         0.21895
C          9.83005         5.75633        -0.03939
C          9.86127         8.64377        -0.15162
C          8.53025        10.71229        -0.59167
C          8.53117        12.07640        -0.89769
C          9.78809        10.00072        -0.43177
C          9.74944        12.85774        -1.08876
C          8.44759        14.95483        -1.26611
C          8.52313        16.40763        -0.85334
C          9.71639        14.22865        -1.34600
C          9.84072        17.09574        -0.75260
C          8.59995        19.09582        -0.01539
C          9.77452        18.49372        -0.40392
C         11.06276         2.14971         0.18242
C         11.06913         3.54651         0.10681
C         12.29803         1.43753         0.13592
C         12.30555         4.29755         0.34284
C         11.12298         6.47903         0.04158
C         11.11160         7.90190        -0.10442
C         12.32535         5.76315         0.06865
C         12.33881         8.56006        -0.29162
C         11.03491        10.78006        -0.47502
C         11.02349        12.16834        -0.99415
C         12.34329        10.02360        -0.39436
C         12.20933        12.81028        -1.24120
C         10.94525        15.03500        -1.56694
C         11.01052        16.48892        -1.18889
C         12.23723        14.24997        -1.58665
C         12.28919        17.21705        -1.21607
C         10.98402        19.35673        -0.63636
C         12.30530        18.62146        -0.81030
C         13.56207         2.04876         0.15104
C         13.62262         3.52139         0.45667
C         14.67857         1.24594        -0.23549
C         14.84909         4.33562         0.19040
C         13.56686         6.43988        -0.13047
C         13.57101         7.85006        -0.34115
C         14.80851         5.72533        -0.13807
C         14.81059         8.55214        -0.52579
C         13.57344        10.66103        -0.87759
C         13.48706        12.06079        -1.32210
C         14.76791         9.97283        -0.79166
C         14.78331        12.81545        -1.47543
C         13.47275        15.00671        -1.22470
C         13.48812        16.48207        -1.38724
C         14.77207        14.28131        -1.20285
C         14.78579        17.05613        -1.52958
C         13.41518        19.38068        -0.47330
C         14.77149        19.06691        -0.83008
C         16.02440         1.59822         0.02469
C         16.09837         3.75473         0.34227
C         17.21972         1.23911        -0.57738
C         17.30745         4.30246        -0.17278
C         16.04030         6.41962        -0.35495
C         16.04210         7.84199        -0.53136
C         17.28254         5.70775        -0.41823
C         17.31341         8.51241        -0.66464
C         16.03495        10.72448        -0.83123
C         16.03041        12.11764        -1.21125
C         17.34735         9.99483        -0.67615
C         17.27205        12.85757        -1.39969
C         16.05834        15.01036        -1.22001
C         16.02306        16.45508        -1.21756
C         17.23982        14.32088        -1.22054
C         17.23328        17.21401        -0.95689
C         15.96928        19.31270        -0.19607
C         17.20058        18.59904        -0.50019
C         18.45099         2.02092        -0.45689
C         18.47240         3.50284        -0.41511
C         19.63680         1.31187        -0.54149
C         19.67374         4.20612        -0.70255
C         18.52193         6.39181        -0.61114
C         18.52319         7.83058        -0.67829
C         19.71066         5.62548        -0.69707
C         19.80142         8.64791        -0.46686
C         18.58841        10.66375        -1.14843
C         18.56216        12.11020        -1.48732
C         19.76402         9.99289        -1.16128
C         19.83418        12.84668        -1.30175
C         18.48927        15.03740        -0.95182
C         18.46995        16.51645        -0.89675
C         19.78266        14.28876        -0.96094
C         19.69725        17.14804        -0.55100
C         18.40115        19.19116        -0.08795
C         19.65337        18.52374        -0.13226
C         20.91722         1.94333        -0.87608
C         20.90028         3.43969        -1.05142
C         22.21264         1.26839        -0.68693
C         22.23171         4.13532        -1.09299
C         21.00864         6.35182        -0.74718
C         21.08981         7.86067        -0.68865
C         22.25271         5.64633        -1.15265
C         22.32281         8.52550        -1.18422
C         21.01875        10.70855        -1.53046
C         21.02821        12.18680        -1.33162
C         22.32004         9.97761        -1.49744
C         22.28474        12.88976        -1.07961
C         21.04569        15.08098        -1.19240
C         20.94883        16.44684        -0.54539
C         22.27995        14.26710        -0.85146
C         22.11326        17.06611        -0.07928
C         20.84134        19.15077         0.29407
C         22.05954        18.44500         0.35204
C         23.41984         1.96758        -0.62082
C         23.42689         3.40501        -0.68634
C         24.68159         1.26834        -0.48693
C         24.60836         4.14828        -0.28967
C         23.50403         6.39978        -0.98604
C         23.51188         7.79529        -1.25081
C         24.68498         5.68074        -0.54088
C         24.81633         8.50173        -1.41174
C         23.56912        10.76710        -1.29092
C         23.53067        12.13503        -1.08080
C         24.84270        10.02184        -1.38388
C         24.77623        12.92316        -0.88117
C         23.45470        14.96586        -0.39080
C         23.37112        16.34622        -0.00626
C         24.68343        14.28051        -0.30440
C         24.53026        16.99223         0.47598
C         23.24054        19.07254         0.81363
C         24.46137        18.38155         0.88198
C         25.89971         1.92269        -0.34387
C         25.88993         3.38889        -0.10636
C         27.15434         1.24239        -0.25904
C         27.18993         4.14199        -0.13726
C         26.03297         6.21081        -1.00554
C         26.08235         7.74626        -1.11936
C         27.23103         5.60112        -0.34226
C         27.13456         8.46309        -0.26882
C         26.14677        10.72670        -1.02871
C         26.10824        12.20486        -0.77763
C         27.28432         9.95545        -0.48355
C         27.21198        12.82518        -0.02220
C         25.86269        14.92404         0.16565
C         25.77369        16.29006         0.57225
C         27.11270        14.21282         0.30830
C         26.94459        16.96379         1.04169
C         25.62564        19.02748         1.35579
C         26.85923        18.35973         1.43970
C         28.39025         1.90837        -0.23148
C         28.41978         3.36981        -0.43154
C         29.64372         1.25336        -0.09616
C         29.72910         4.14218        -0.26885
C         28.44042         6.30287        -0.20537
C         28.44696         7.73336        -0.16393
C         29.67059         5.58391         0.02138
C         29.59693         8.42578         0.27732
C         28.37186        10.61500         0.07438
C         28.35550        12.06662         0.27917
C         29.55159         9.85596         0.47148
C         29.48520        12.72117         0.87992
C         28.25833        14.88593         0.81844
C         28.17295        16.28150         1.11012
C         29.46192        14.13608         1.09662
C         29.38377        17.03708         1.47228
C         27.99250        19.02444         1.95865
C         29.24549        18.38978         2.04170
C         30.83866         1.95357         0.07793
C         30.90910         3.36431         0.10876
C         32.04572         4.09575         0.54425
C         30.83319         6.25151         0.42744
C         30.79182         7.69203         0.59863
C         32.02041         5.47234         0.66451
C         31.90231         8.40583         1.09451
C         30.67612        10.52156         1.00095
C         30.63891        11.96164         1.24061
C         31.84528         9.77345         1.29476
C         31.72336        12.61862         1.83825
C         30.60477        14.76988         1.66940
C         30.66509        16.24719         1.80207
C         31.70565        13.99685         2.04511
C         31.61207        16.90228         2.70289
C         30.35335        18.99520         2.65295
C         31.49796        18.24091         3.00070
O         29.15199         3.80693        -1.59538
O         26.58018         3.73168         1.14486
O         16.77143        10.59085         0.52063
O         11.78383        10.70057         0.79897
O         17.88595        12.45400        -2.74987
O         22.30412         4.87774        -2.39268
O         14.08144        12.31492        -2.67109
O          8.74599         7.29219         1.55899
O         21.32873         7.03462         0.52393
O          9.71173         5.08317        -1.33846
O          2.31591         6.11750         0.16340
O         20.76076         2.59157        -2.23280
O         14.85728        18.35237        -2.04688
O         16.17055         2.56193         1.04753
O          6.58783        12.11503        -2.37356
O         21.63686        10.26815        -2.79127
O         19.13337        14.50520         0.32381
O         12.90926         3.93651         1.65446
O          8.23085        16.08199        -2.22819
O         25.74166        12.92966        -1.99303
O          4.47531        13.52494        -2.21011
O         11.63137        14.68419        -2.82879
O          5.78041         8.69911         1.79895
O          3.25744        16.12530        -1.46266
O         30.47966        16.92097         0.51252
O         25.77081        10.48307        -2.41658
O         25.76262         8.09938        -2.47831
O          5.10244        17.11427         1.71397
O         24.45886         5.13720         0.79066
O         14.02941        14.56260         0.06144
O          5.74398         3.31486        -1.25125
H          5.44463         4.19467        -1.59476
O         19.78382         9.01141         0.94454
H         20.14284         8.23741         1.43923
O         11.06876        20.36561         0.37665
H         11.04425        19.92583         1.25116
O         21.10009        15.30821        -2.63638
H         21.97771        15.68626        -2.85527
O          2.92717         9.87300         2.35080
H          3.77969        10.21817         2.01468
O          7.71509        16.34795         1.36758
H          6.93943        16.57174         1.94107
O         26.12623         5.65339        -2.35666
H         26.01669         6.40738        -2.98972
O          2.32592         8.59014        -0.89591
H          1.42862         8.20307        -0.92384
O         26.50489         8.36637         1.07501
H         27.19358         8.56679         1.74494
O          4.59353         5.76047        -1.14259
H          3.62006         5.69716        -1.29158
H          0.74717         1.60360         2.91466
H          0.60809         4.06188         2.61454
H          2.81366         0.37378         2.26721
H          0.90049         5.95351         3.16742
H          1.13156         8.38731         3.40827
H          0.11517        10.01988        -0.65233
H          0.04802        12.47560        -0.30804
H          0.17533        14.34730         0.42078
H          0.28542        16.69327         1.09723
H          1.57921        18.87092         1.36150
H          5.07805         0.37782         1.50275
H          3.72143        20.07470         1.28772
H          7.42653         0.37048         0.91078
H          6.21429        20.12835         0.68265
H          9.80871         0.36224         0.32797
H          8.60785        20.18047         0.17402
H         12.25165         0.34510         0.01069
H         10.81305        19.90788        -1.60649
H         14.46737         0.30280        -0.76290
H         13.21659        20.32259         0.06650
H         17.25615         0.35415        -1.23028
H         15.99909        20.02614         0.64131
H         19.60242         0.21251        -0.50033
H         18.37410        20.21733         0.30854
H         22.21632         0.17560        -0.56081
H         20.81520        20.20457         0.60901
H         24.66745         0.16964        -0.54963
H         23.19989        20.12505         1.13131
H         27.14938         0.14146        -0.25432
H         25.56332        20.08057         1.66789
H         29.65866         0.15542        -0.03310
H         27.88598        20.05720         2.32282
H         31.75763         1.38329         0.28013
H         32.96782         3.54859         0.78989
H         32.94015         5.98084         0.98320
H         32.83142         7.87731         1.34533
H         32.73931        10.27424         1.68605
H         32.61984        12.06450         2.14203
H         32.59131        14.47426         2.48476
H         32.41334        16.31418         3.17124
H         30.27092        20.03547         2.99882
H         32.27034        18.71888         3.62034
