         404
 CSIRO Nanostructure Databank - Neutral Graphene Oxide Data Set
C          1.36354         2.06863         2.06164
C          1.31722         3.46187         1.90654
C          2.53543         1.37026         1.82193
C          2.44819         4.19298         1.49469
C          1.28706         6.39400         1.74089
C          1.27304         7.77893         1.70183
C          2.42647         5.64546         1.37143
C          2.40916         8.50813         1.27372
C          1.28727        10.73578         1.61162
C          1.31852        12.12782         1.66452
C          2.42321         9.97573         1.27681
C          2.50619        12.85790         1.42864
C          1.35883        15.09472         1.69316
C          1.37347        16.48080         1.65116
C          2.52621        14.33118         1.43067
C          2.54907        17.19384         1.32130
C          2.59557        18.62847         1.31477
C          3.70166         2.06209         1.39289
C          3.65114         3.48270         1.21295
C          4.91333         1.36835         1.17420
C          4.81579         4.17253         0.73672
C          3.58534         6.34590         0.91316
C          3.54536         7.77498         0.86535
C          4.77766         5.60424         0.57126
C          4.71614         8.52006         0.36964
C          3.62917        10.69014         0.98624
C          3.66801        12.11233         1.11271
C          4.80844         9.97702         0.60688
C          4.95473        12.79607         0.92557
C          3.70453        15.03836         1.10120
C          3.73113        16.45909         1.01688
C          4.97363        14.32924         0.90881
C          4.94286        17.15762         0.69348
C          3.76174        19.29556         1.05496
C          4.97317        18.58624         0.73737
C          6.07182         2.04393         0.73866
C          5.99309         3.44605         0.46131
C          7.31750         1.35517         0.64008
C          7.16097         4.10086        -0.22905
C          5.99075         6.27250         0.21665
C          5.95672         7.74289         0.04763
C          7.19009         5.59806        -0.02303
C          7.26379         8.45574         0.08085
C          6.00029        10.67078         0.28415
C          6.07293        12.05893         0.34609
C          7.27801         9.94402         0.10680
C          7.20133        12.77049        -0.28726
C          6.08031        15.03692         0.26543
C          6.10776        16.43757         0.27254
C          7.14318        14.28372        -0.39899
C          7.33196        17.14209        -0.05416
C          6.17717        19.26528         0.49318
C          7.36949        18.57099         0.14982
C          8.53107         2.06702         0.45185
C          8.46454         3.43543         0.11978
C          9.80875         1.39328         0.52538
C          9.67822         4.24065         0.13981
C          8.42440         6.31449        -0.31666
C          8.43706         7.72518        -0.39369
C          9.65281         5.62187        -0.36263
C          9.63700         8.49341        -0.73200
C          8.51620        10.66368        -0.28407
C          8.51045        12.09606        -0.43539
C          9.67596         9.94488        -0.47418
C          9.68875        12.77748        -0.79939
C          8.38404        15.01720        -0.82089
C          8.48715        16.45654        -0.47560
C          9.63617        14.23185        -1.11996
C          9.74752        17.11918        -0.57685
C          8.59672        19.23865         0.01548
C          9.78948        18.53574        -0.28333
C         11.02256         2.06059         0.40621
C         10.99865         3.54246         0.39949
C         12.28029         1.38748         0.29667
C         12.27552         4.28450         0.12970
C         10.90100         6.27729        -0.79349
C         10.92101         7.76332        -1.01073
C         12.21808         5.59590        -0.58581
C         12.20662         8.51283        -0.87254
C         10.98542        10.65677        -0.30951
C         10.95117        12.09694        -0.78792
C         12.20860         9.86802        -0.71529
C         12.18389        12.75712        -0.97436
C         10.92409        14.99562        -1.25996
C         10.95270        16.43673        -0.91577
C         12.21662        14.21605        -1.26062
C         12.20807        17.10503        -0.91494
C         11.02534        19.19825        -0.28136
C         12.23896        18.52316        -0.56197
C         13.50747         2.04180         0.10709
C         13.55459         3.52354         0.04204
C         14.73005         1.35519        -0.05340
C         14.74061         4.20099        -0.52185
C         13.48485         6.36507        -0.68539
C         13.47271         7.75933        -0.91012
C         14.70338         5.63969        -0.72497
C         14.68991         8.45225        -1.09514
C         13.51948        10.60007        -0.54640
C         13.42902        12.08075        -0.88091
C         14.63052         9.93659        -1.36921
C         14.65159        12.77980        -0.99773
C         13.48185        14.95935        -1.07399
C         13.43910        16.38842        -1.06373
C         14.67245        14.21308        -1.07001
C         14.69429        17.14799        -1.17555
C         13.44170        19.20961        -0.36417
C         14.70923        18.65132        -0.77597
C         15.94033         2.03501        -0.33646
C         15.91983         3.46447        -0.61681
C         17.17660         1.35243        -0.36801
C         17.15568         4.12745        -0.92941
C         15.89635         6.33964        -1.03380
C         15.91602         7.75343        -1.17018
C         17.10687         5.55852        -1.30252
C         17.18126         8.48950        -1.26047
C         15.94536        10.64638        -1.13655
C         15.90957        12.04334        -0.99999
C         17.17192         9.92857        -1.15213
C         17.14963        12.75506        -0.83063
C         15.97809        14.90310        -1.08769
C         16.01171        16.42427        -1.08162
C         17.16331        14.15104        -0.70110
C         17.16829        17.10573        -0.49747
C         15.97925        19.25882        -0.38101
C         17.17813        18.52970        -0.33626
C         18.40298         2.02866        -0.55260
C         18.36077         3.45050        -0.81558
C         19.64705         1.33261        -0.52184
C         19.61619         4.21965        -0.78721
C         18.41026         6.33690        -1.45792
C         18.40627         7.80610        -1.30371
C         19.64042         5.60769        -1.19317
C         19.66642         8.49458        -1.18089
C         18.41724        10.64615        -1.07572
C         18.38948        12.04328        -0.91224
C         19.67873         9.92407        -1.10345
C         19.62463        12.83931        -1.04337
C         18.37074        14.80993        -0.08759
C         18.34741        16.34319        -0.08041
C         19.67104        14.23382        -0.60868
C         19.67356        17.09436        -0.05899
C         18.43321        19.22141        -0.21331
C         19.66099        18.55980        -0.26607
C         20.89649         1.96985        -0.61977
C         20.93607         3.44772        -0.61868
C         22.13446         1.28897        -0.63369
C         22.19272         4.11933        -0.92401
C         20.89346         6.32287        -1.35402
C         20.90221         7.78763        -1.18773
C         22.20138         5.55235        -1.23774
C         22.14360         8.45015        -1.02495
C         20.91931        10.59382        -1.01524
C         20.96019        12.06596        -1.11354
C         22.14612         9.87487        -0.91170
C         22.15158        12.79690        -0.70250
C         20.88218        14.91796        -0.52064
C         20.92630        16.34935        -0.28917
C         22.14281        14.19526        -0.59572
C         22.11888        17.06226        -0.37890
C         20.90239        19.22757        -0.35108
C         22.12818        18.52023        -0.35569
C         23.37821         1.96882        -0.65515
C         23.39581         3.41854        -0.81831
C         24.60897         1.28194        -0.54076
C         24.62887         4.13343        -0.83968
C         23.42845         6.31073        -0.98523
C         23.40132         7.72764        -0.94597
C         24.63438         5.57583        -0.86091
C         24.63100         8.44101        -0.78416
C         23.38379        10.55959        -0.67520
C         23.34802        12.01518        -0.39471
C         24.59694         9.86220        -0.60487
C         24.66890        12.79965        -0.40296
C         23.37783        14.93683        -0.50698
C         23.37438        16.35816        -0.49155
C         24.62694        14.25764        -0.59714
C         24.59817        17.07521        -0.51372
C         23.35809        19.20361        -0.38519
C         24.60162        18.51787        -0.43739
C         25.84766         1.95757        -0.50417
C         25.85300         3.41138        -0.64662
C         27.08221         1.26708        -0.38202
C         27.05500         4.10062        -0.59464
C         25.85834         6.29948        -0.85910
C         25.87545         7.70901        -0.81788
C         27.10750         5.53057        -0.91905
C         27.14409         8.39856        -0.79631
C         25.87277        10.60546        -0.42450
C         25.89559        12.06527        -0.64854
C         27.16164         9.86444        -0.60872
C         27.10761        12.75297        -0.84379
C         25.82464        14.95887        -0.73596
C         25.83799        16.37957        -0.63194
C         27.08848        14.24506        -1.14565
C         27.07717        17.08878        -0.56180
C         25.83006        19.20376        -0.42004
C         27.07393        18.51401        -0.43878
C         28.31722         1.93399        -0.22432
C         28.26528         3.41470        -0.12511
C         29.56074         1.27368        -0.16200
C         29.53795         4.19338         0.06582
C         28.43008         6.28645        -0.83075
C         28.37354         7.75454        -0.76004
C         29.63187         5.60647        -0.34383
C         29.62932         8.47587        -0.65338
C         28.35976        10.58616        -1.18912
C         28.31699        12.06047        -0.89355
C         29.66230         9.89489        -0.82406
C         29.57453        12.80408        -1.02429
C         28.32071        14.97784        -0.68375
C         28.32245        16.36058        -0.50320
C         29.55224        14.21042        -0.51704
C         29.56452        17.08147        -0.28644
C         28.30779        19.20451        -0.32522
C         29.54379        18.52136        -0.24235
C         30.80818         1.94455        -0.01381
C         30.80275         3.41263         0.22481
C         32.04210         1.27758        -0.01025
C         32.08020         4.18001         0.10720
C         30.83822         6.32501        -0.28608
C         30.84097         7.76696        -0.46489
C         32.07610         5.64133        -0.12247
C         32.07410         8.47929        -0.35491
C         30.87197        10.59053        -0.80767
C         30.87051        12.05800        -1.05842
C         32.09734         9.90455        -0.49878
C         32.14345        12.83219        -0.87021
C         30.84126        14.94265        -0.24594
C         30.80283        16.42002        -0.18567
C         32.11850        14.25788        -0.52815
C         32.02353        17.12098         0.03828
C         30.77130        19.21925        -0.12059
C         32.01515        18.57768         0.05604
C         33.30712         1.95464        -0.03692
C         33.29638         3.41754        -0.26695
C         34.54280         1.32085         0.02408
C         34.59028         4.20082        -0.25071
C         33.30296         6.34136        -0.11013
C         33.29669         7.77852        -0.13687
C         34.54784         5.65258        -0.01797
C         34.51209         8.48149         0.07575
C         33.32270        10.59605        -0.28950
C         33.40559        12.05351        -0.51873
C         34.49925         9.91264         0.08689
C         34.51957        12.80939         0.04603
C         33.30253        14.93609        -0.28459
C         33.23742        16.34701         0.08855
C         34.51985        14.18688        -0.01063
C         34.39634        16.90864         0.62196
C         33.20163        19.40397         0.07674
C         34.41580        19.01276         0.66391
C         35.79503         2.04156         0.06452
C         35.82241         3.46638         0.01446
C         37.02187         1.36453         0.24031
C         37.01169         4.20345         0.23593
C         35.75515         6.34940         0.19514
C         35.73999         7.78215         0.27525
C         36.99639         5.64065         0.30444
C         36.94479         8.49493         0.52854
C         35.68919        10.61132         0.50576
C         35.60483        12.07632         0.73041
C         36.87698         9.92049         0.71544
C         36.81675        12.84395         1.21006
C         35.79636        14.90126         0.20641
C         35.74136        16.44651         0.37615
C         36.95593        14.25819         0.79740
C         36.92392        17.18797         0.83486
C         35.74508        19.43983         0.49694
C         36.90477        18.63619         0.82243
C         38.24034         2.06972         0.36889
C         38.23931         3.50139         0.38188
C         39.48853         1.39053         0.50333
C         39.46002         4.23358         0.48877
C         38.21636         6.36187         0.48261
C         38.18883         7.80267         0.64741
C         39.44429         5.65447         0.49699
C         39.39674         8.52599         0.90498
C         38.08406        10.60243         1.24639
C         38.05921        12.07336         1.55887
C         39.38697         9.91107         1.11077
C         39.35802        12.84722         1.80645
C         38.12843        14.99263         1.03234
C         38.12593        16.45544         0.96314
C         39.34799        14.30298         1.35058
C         39.36050        17.15350         1.14327
C         38.14440        19.29039         0.94510
C         39.35842        18.58474         1.11504
C         40.67192         2.09882         0.63061
C         40.68809         3.51182         0.62013
C         41.91684         4.25141         0.79115
C         40.73891         6.42689         0.36325
C         40.69372         7.76539         1.12107
C         41.94827         5.60267         0.72832
C         41.88949         8.62978         0.80885
C         40.59800        10.68984         1.16521
C         40.59698        12.08274         1.35732
C         41.83784         9.97326         0.88198
C         41.79790        12.85530         1.36140
C         40.56500        14.98914         1.38960
C         40.59080        16.44528         1.29771
C         41.78333        14.22768         1.45900
C         41.78127        17.18071         1.41259
C         40.59040        19.28419         1.23991
C         41.77607        18.58502         1.38229
O         31.56072         3.79689         1.42892
O         27.93640         5.76303        -2.12938
O         33.89813         3.82248        -1.52189
O         34.27193        17.91179         1.56718
O         11.55394         5.49622        -1.89458
O         30.22746        12.51102        -2.32126
O         17.66457         5.83382        -2.63752
O         11.57509        14.63364        -2.52075
O          6.65457        13.43603        -1.49749
O         35.71940        12.55070         2.13314
O         24.00743        12.38465         0.85443
O         36.00724        15.81098        -0.91547
O         20.31520        12.59148        -2.31597
O         13.14590         4.24020         1.29231
O         37.83796        11.10849         2.63230
O         30.10265        14.27771         0.85939
O         18.94619        16.79661         1.19621
O         16.27951        15.68683        -2.33382
O         28.62978         3.96595         1.21381
O         20.28292         4.05488         0.55529
O         33.11293        12.47000        -1.90210
O         21.61942         5.84932        -2.57507
O         26.73630        10.22838         0.73610
O          5.40005        13.57707         2.11622
O          5.08206         8.17084        -1.04569
O         14.69183        18.17578        -2.18862
O          8.73466        14.66076        -2.19443
O         10.30127         4.15273         1.51759
O          7.53319         9.15902         1.36331
O         10.11799         8.19631        -2.14194
O         28.22881        10.47604        -2.64096
H         28.91671        11.06742        -3.03029
O         40.74924         7.42702         2.53629
H         40.67911         8.25988         3.04853
O         11.15730        10.76844         1.17943
H         10.28357        11.00510         1.56191
O         18.30439        14.36572         1.31099
H         18.73127        15.08189         1.84292
O         40.87156         6.77773        -1.05038
H         40.88483         5.94470        -1.56685
O          6.97173         3.89748        -1.68916
H          6.15054         4.36885        -1.94669
O         14.27104        10.10992        -2.76455
H         14.94571         9.66498        -3.31854
O         39.49384        12.95762         3.25901
H         39.05049        12.16275         3.63971
O         13.89890        10.49302         0.84972
H         13.08967        10.67532         1.38312
O         27.09822        14.29570        -2.62071
H         27.04499        15.23866        -2.88611
H          0.46043         1.53268         2.38505
H          0.36848         3.97495         2.11201
H          2.57515         0.28008         1.95716
H          0.38318         5.87865         2.09186
H          0.36341         8.30466         2.02030
H          0.33434        10.23436         1.82834
H          0.38739        12.65565         1.91024
H          0.41858        14.58947         1.95174
H          0.45582        17.04072         1.88302
H          1.67714        19.18692         1.54774
H          4.95606         0.28567         1.36721
H          3.78762        20.39487         1.07506
H          7.34807         0.27519         0.84639
H          6.20787        20.36132         0.58217
H          9.80531         0.29619         0.61072
H          8.64673        20.32373         0.18883
H         12.27716         0.28738         0.33558
H         11.05986        20.27110        -0.04139
H         14.74941         0.26097         0.06142
H         13.42607        20.19053         0.13365
H         17.18901         0.26897        -0.17624
H         15.98917        20.32775        -0.12352
H         19.62182         0.23713        -0.41746
H         18.41547        20.32142        -0.21987
H         22.13475         0.18968        -0.57763
H         20.91822        20.32618        -0.40806
H         24.59684         0.18621        -0.43764
H         23.35756        20.30373        -0.36303
H         27.07150         0.16631        -0.39097
H         25.83131        20.30179        -0.34809
H         29.57317         0.17715        -0.26089
H         28.30068        20.30327        -0.26604
H         32.04742         0.17709        -0.04338
H         30.74556        20.31923        -0.12813
H         34.58104         0.22659         0.13484
H         33.13543        20.39071        -0.40542
H         37.03309         0.26488         0.27351
H         35.93367        20.43191         0.05985
H         39.50105         0.29113         0.50712
H         38.17569        20.38913         0.89679
H         41.62329         1.55834         0.74207
H         42.83799         3.68524         0.99751
H         42.90645         6.12462         0.86609
H         42.84853         8.14075         0.58447
H         42.75432        10.54938         0.69528
H         42.77286        12.35544         1.27980
H         42.74653        14.75456         1.47957
H         42.74299        16.66719         1.54252
H         40.58874        20.38334         1.22103
H         42.72636        19.12826         1.47944
