         490
 CSIRO Nanostructure Databank - Neutral Graphene Oxide Data Set
C         37.47743        50.01837         0.17449
C         36.38634        50.60950        -0.38986
C         37.59656        52.70952        -0.69428
C         36.42344        51.96924        -0.81352
C         40.05250        48.62614         0.27939
C         40.02257        50.01535         0.25149
C         38.73305        50.78602         0.48330
C         40.00853        52.88083        -0.11319
C         38.76534        52.15363        -0.15368
C         40.04507        54.28441        -0.23391
C         42.47780        48.59977         0.06712
C         41.26321        47.92641         0.14959
C         42.47995        50.02328         0.07414
C         41.24488        50.73200         0.12089
C         42.47706        52.87814        -0.01066
C         41.24500        52.17032         0.02647
C         42.47455        54.30091        -0.08255
C         41.25275        54.97678        -0.17420
C         44.95425        45.74596         0.38015
C         43.79672        46.42039         0.18656
C         44.99272        48.63507         0.26789
C         43.77869        47.86985        -0.21424
C         44.98072        50.01465         0.21937
C         43.72649        50.75086         0.05279
C         44.97870        52.88439        -0.07460
C         43.72346        52.14827         0.03313
C         44.99542        54.25661        -0.17897
C         43.76242        55.06981         0.13588
C         44.98035        57.11110        -0.58148
C         43.81301        56.44094        -0.48971
C         47.50384        44.31671         0.14865
C         47.44857        45.73995         0.35383
C         46.22953        46.41586         0.44141
C         47.48871        48.60417         0.80602
C         46.15302        47.86196         0.87561
C         47.49091        50.09155         0.57996
C         46.21354        50.78331         0.29084
C         47.48921        52.85645        -0.08711
C         46.22567        52.12991        -0.01288
C         47.50083        54.22692        -0.22059
C         46.25607        54.97459        -0.60739
C         47.41019        57.16091        -0.05021
C         46.25350        56.46231        -0.31347
C         47.46183        58.59672         0.12048
C         49.95106        44.31743         0.09465
C         48.68906        43.64163         0.04333
C         49.94770        45.72631         0.25769
C         48.71359        46.45744         0.39905
C         49.96110        48.58701         0.41082
C         48.73677        47.85498         0.52678
C         49.98185        50.00145         0.23280
C         48.75266        50.76640         0.19567
C         49.96280        52.83476        -0.57895
C         48.74031        52.12135        -0.04513
C         50.05500        54.28969        -0.16851
C         48.75484        54.96790         0.02539
C         49.96043        57.21089         0.06271
C         48.69725        56.44974         0.16569
C         49.92982        58.57938         0.16265
C         48.64507        59.25636         0.26146
C         52.45031        41.60538        -0.71945
C         51.25475        42.21997        -0.38379
C         52.42930        44.31851        -0.00058
C         51.19846        43.60589        -0.07806
C         52.41769        45.73565         0.26815
C         51.18657        46.44048         0.31997
C         52.43115        48.56923         0.43774
C         51.19796        47.86621         0.38968
C         52.44008        49.99509         0.30776
C         51.22154        50.66887         0.06032
C         52.55079        52.85688        -0.11473
C         51.26504        52.08001        -0.35846
C         52.51558        54.32626         0.04408
C         51.23511        54.99054        -0.08552
C         52.46177        57.18443         0.29858
C         51.24589        56.49390        -0.26702
C         52.42578        58.60667         0.37619
C         51.19035        59.32605         0.21211
C         52.42012        61.42569         0.31991
C         51.21460        60.71920         0.19746
C         54.99851        40.36935        -1.70442
C         54.93100        41.84231        -1.43256
C         53.66091        42.33705        -0.74832
C         54.92348        44.49318        -0.46579
C         53.65108        43.66963        -0.32935
C         54.86932        45.61202         0.65177
C         53.63426        46.43946         0.44918
C         54.90730        48.54927         0.69694
C         53.66055        47.83601         0.54563
C         54.83352        49.99976         1.07884
C         53.65623        50.73572         0.49966
C         54.88591        52.86669         0.78172
C         53.70115        52.11906         0.42624
C         54.88274        54.27651         0.75162
C         53.67214        55.01083         0.43614
C         54.82638        57.20754         0.90353
C         53.64839        56.47707         0.53748
C         54.83128        58.60775         0.90927
C         53.63402        59.32670         0.61507
C         54.89668        61.47767         0.56239
C         53.62625        60.75999         0.52709
C         54.98747        62.87507         0.11866
C         57.40338        40.22955        -1.22412
C         56.15002        39.64443        -1.60518
C         57.40256        41.62165        -0.84961
C         56.18783        42.35632        -0.77064
C         57.41669        44.31072         0.01423
C         56.19694        43.67419        -0.29863
C         57.45327        45.71621         0.47319
C         56.16001        46.41742         0.74618
C         57.37690        48.63036         0.63623
C         56.13134        47.89955         0.67772
C         57.36547        50.03761         0.77748
C         56.12547        50.74775         0.92958
C         57.34538        52.83605         1.46770
C         56.09725        52.13196         1.02248
C         57.30961        54.32840         1.25667
C         56.11897        54.98775         1.06712
C         57.36566        57.23133         1.36490
C         56.05175        56.45907         1.27756
C         57.36224        58.67632         1.11734
C         56.04757        59.39265         1.38806
C         57.32196        61.56048         0.74235
C         56.04212        60.81802         0.90474
C         57.24739        63.04226         1.11456
C         56.08850        63.62126         0.32641
C         59.83779        37.34696        -1.16500
C         58.66118        38.04682        -1.28771
C         59.86599        40.13707        -0.96180
C         58.63317        39.47259        -1.17386
C         59.89277        41.63166        -1.07582
C         58.62683        42.29779        -0.61970
C         59.89861        44.39268        -0.20849
C         58.64129        43.65288        -0.24418
C         59.88531        45.84244        -0.03769
C         58.67336        46.51586         0.23361
C         59.83410        48.66118         0.24849
C         58.62977        47.92823         0.38618
C         59.79430        50.15606         0.06778
C         58.57918        50.81524         0.66112
C         59.82758        52.92919         0.90316
C         58.59823        52.16488         0.94688
C         59.83829        54.30500         1.13688
C         58.60181        55.03919         1.61406
C         59.81522        57.18627         1.03861
C         58.61791        56.49624         1.23310
C         59.81784        58.61729         0.88626
C         58.56024        59.32338         0.87797
C         59.89254        61.48638         0.77343
C         58.59390        60.79230         0.65916
C         59.89872        62.97397         0.83154
C         58.59629        63.75851         0.95995
C         59.82027        65.76967         0.22269
C         58.64485        65.16645         0.54048
C         62.34352        35.81818        -0.77385
C         62.29885        37.27439        -0.69415
C         61.08180        37.99734        -0.89748
C         62.31383        40.12352        -0.52936
C         61.08467        39.42757        -0.81463
C         62.31046        41.57285        -0.39736
C         61.12810        42.28439        -0.54049
C         62.38069        44.44252        -0.58274
C         61.09160        43.71249        -0.37407
C         62.36952        45.88775        -0.17895
C         61.10008        46.57689        -0.07655
C         62.30467        48.74092         0.05986
C         61.06930        47.99467         0.06993
C         62.31322        50.12179         0.29783
C         61.08257        50.84558         0.43018
C         62.31751        52.93719         0.78062
C         61.07438        52.21861         0.68226
C         62.30630        54.34471         0.92815
C         61.06505        55.04685         1.04720
C         62.29660        57.19230         0.94770
C         61.06821        56.46428         1.04190
C         62.27259        58.61224         0.80184
C         61.05736        59.32248         0.78109
C         62.34652        61.58564         0.83775
C         61.06303        60.78458         0.74210
C         62.29906        62.85255        -0.07557
C         61.07475        63.67654         0.29149
C         62.30325        65.66374        -0.51553
C         61.05606        65.03157         0.09289
C         62.34143        67.16909        -0.46382
C         64.82556        35.89419        -0.73717
C         63.51260        35.14837        -0.78539
C         64.67365        37.14535         0.14015
C         63.48169        37.96962        -0.35827
C         64.72313        40.04908         0.26255
C         63.48047        39.37717        -0.28033
C         64.83612        41.51993        -0.19361
C         63.54028        42.29360        -0.09752
C         64.83179        44.40646         0.01229
C         63.58621        43.66768        -0.12353
C         64.83208        45.82931        -0.00932
C         63.57090        46.55437        -0.10594
C         64.83170        48.71641         0.16584
C         63.58369        48.04219        -0.33034
C         64.80102        50.13624         0.39841
C         63.57029        50.83391         0.44162
C         64.78185        52.96348         0.82665
C         63.55376        52.24004         0.66763
C         64.76831        54.35142         1.04568
C         63.54263        55.06833         1.00846
C         64.79853        57.21011         1.07169
C         63.53437        56.48854         1.01010
C         64.79499        58.59562         0.95238
C         63.56832        59.29394         0.43538
C         64.79705        61.44653         0.50456
C         63.61470        60.79300         0.62925
C         64.85159        62.87791         0.01757
C         63.57288        63.65585         0.16489
C         64.78649        65.78031         0.32872
C         63.55527        65.00159         0.04706
C         64.72256        67.27937         0.25081
C         63.43100        67.89076        -0.17070
C         67.29642        32.98595        -0.74282
C         66.18103        33.70099        -0.94008
C         67.21785        35.69740         0.26933
C         65.98283        35.00838        -0.27303
C         67.18468        37.18197         0.27471
C         66.00941        37.86402         0.19308
C         67.28619        40.06140         0.05889
C         65.99498        39.30882        -0.23672
C         67.30750        41.49914         0.18994
C         66.01344        42.22738         0.49125
C         67.24510        44.40822         0.38813
C         66.04589        43.71047         0.20074
C         67.27512        45.83014         0.37374
C         66.04359        46.54415         0.19428
C         67.25747        48.71737         0.57035
C         66.00592        47.98913         0.29210
C         67.27407        50.18462         0.40469
C         66.02977        50.86537         0.54122
C         67.27817        52.97363         0.74226
C         66.03095        52.26145         0.72439
C         67.28937        54.35697         1.01419
C         66.03164        55.03207         1.50428
C         67.27281        57.20205         1.23805
C         66.02962        56.50909         1.24770
C         67.30654        58.61688         1.15381
C         66.03110        59.40621         1.21559
C         67.33052        61.48406         0.71415
C         66.09074        60.67547         0.35261
C         67.29469        62.92639         0.62286
C         66.09809        63.63046         0.39486
C         67.27757        65.78969         0.42501
C         66.09818        65.06484         0.35108
C         67.29200        67.23359         0.07916
C         66.00911        68.01010        -0.03908
C         67.11637        69.73040        -1.43650
C         65.98548        69.16947        -0.96726
C         69.75191        31.32006         0.23044
C         69.72265        32.76095        -0.25637
C         68.42162        33.46917         0.15227
C         69.70201        35.68409         0.04307
C         68.51834        34.99561         0.13436
C         69.75078        37.13973         0.15704
C         68.48857        37.90571         0.52032
C         69.74616        40.08313         0.03605
C         68.46940        39.35712         0.09334
C         69.76288        41.52473         0.31793
C         68.50048        42.19081         0.37953
C         69.79293        44.38668         0.72099
C         68.47032        43.64073         0.68805
C         69.76515        45.84419         0.49937
C         68.54055        46.50938         0.47051
C         69.80511        48.69378         0.25219
C         68.55943        47.97759         0.59001
C         69.65206        50.09088        -0.32033
C         68.47678        50.87357         0.24992
C         69.71960        53.03428         0.35589
C         68.49886        52.29096         0.41471
C         69.74416        54.39161         0.70768
C         68.51126        55.07522         1.02161
C         69.78964        57.18080         1.55964
C         68.50297        56.47421         1.25210
C         69.74272        58.68043         1.37535
C         68.54215        59.34038         1.16584
C         69.71858        61.53448         1.31483
C         68.50117        60.80539         1.05409
C         69.56841        62.95298         1.42255
C         68.48324        63.66294         0.95309
C         69.87146        65.79624         0.28373
C         68.56411        65.17835         0.95696
C         69.76087        67.05089        -0.55024
C         68.39174        67.60220        -0.91770
C         69.68116        69.59767        -1.93836
C         68.43645        69.09873        -1.20427
C         69.60825        70.82629        -2.74226
C         72.17384        31.35377        -0.00251
C         70.92453        30.66157         0.29892
C         72.21135        32.69803        -0.08335
C         70.96917        33.50965         0.25350
C         72.22073        35.69971         0.20338
C         71.00531        34.95118        -0.28056
C         72.20242        37.03968         0.33789
C         70.96496        37.79378         0.24877
C         72.17958        40.04068         0.72647
C         71.05136        39.28343         0.18704
C         72.17681        41.40714         0.73439
C         70.99534        42.19066         0.48097
C         72.20500        44.38301         0.34167
C         71.04456        43.63990         0.50987
C         72.19270        45.79919         0.31394
C         71.01561        46.54997         0.36567
C         72.20813        48.75105        -0.15009
C         70.99128        48.00392         0.16480
C         72.20448        50.08291        -0.37634
C         70.95596        50.88063        -0.40143
C         72.22277        53.11156         0.09039
C         70.96373        52.36692        -0.11108
C         72.20903        54.43570         0.36045
C         70.97995        55.15863         0.64149
C         72.09582        57.37298         0.52981
C         70.97775        56.52923         0.87223
C         72.12461        58.70592         0.76511
C         71.05860        59.40412         1.58166
C         72.22633        61.59108         1.19841
C         70.98965        60.91137         1.38226
C         72.43166        62.89957         0.76065
C         71.43882        63.90351         0.90761
C         72.01843        65.34374        -0.96558
C         71.12853        64.99818         0.08625
C         71.88701        66.48332        -1.73376
C         70.82073        67.40076        -1.54725
C         71.56321        68.88660        -3.40135
C         70.71359        68.59190        -2.28628
C         71.42812        70.03635        -4.13740
C         70.44157        71.02033        -3.79819
O         59.43866        63.48968         2.13983
O         57.89160        61.25872        -0.57799
O         70.59587        39.74771        -1.12731
O         66.93348        68.20390         1.09418
O         64.65419        66.63012         1.54738
O         70.88156        51.84344        -1.51081
O         65.87927        39.12239        -1.64663
O         69.08777        43.98550         1.96856
O         56.58294        56.83144         2.61023
O         48.68853        55.59854         1.39088
O         62.32223        62.57085        -1.45755
O         67.91223        48.39177         1.86932
O         52.18821        52.35485        -1.46645
O         56.97927        45.93389         1.87712
O         54.97211        45.00148        -1.76249
O         70.60258        63.68567         2.01845
O         70.11915        67.13228         0.85643
O         66.25116        35.01581         1.16348
O         47.60085        49.52664         1.95258
O         69.45021        69.82878        -0.49092
O         54.91211        42.48437        -2.75147
H         54.91975        43.48324        -2.58387
O         49.73398        52.90012        -2.02355
H         50.62938        52.96872        -2.43456
O         54.57631        49.97422         2.53851
H         55.41736        49.73536         2.98407
O         64.95376        62.67634        -1.45240
H         63.99239        62.53900        -1.74816
O         62.28396        65.30793        -1.92985
H         62.24302        64.30644        -1.97254
O         45.78280        47.77057         2.29047
H         46.20650        48.54665         2.73205
O         64.31361        36.76867         1.48875
H         64.31241        37.59337         2.02312
O         65.09948        41.56162        -1.61288
H         65.39729        40.65185        -1.92785
O         65.84822        42.17478         1.95039
H         66.63580        42.59845         2.35670
O         62.41404        62.13221         2.18462
H         62.48594        61.39301         2.82304
O         68.03479        66.93779        -2.16317
H         67.19768        67.32523        -2.49668
O         71.14336        34.88974        -1.72768
H         71.09460        35.80726        -2.06956
O         43.81700        55.30878         1.59061
H         43.83914        54.43428         2.03457
O         65.14272        36.35889        -2.07312
H         65.42735        37.31510        -2.02790
O         66.19637        60.28634        -1.04671
H         65.95945        61.10660        -1.55962
O         68.62143        65.58871         2.34223
H         68.90279        66.53268         2.35247
O         70.89394        33.62905         1.69087
H         70.49494        32.80351         2.04016
O         51.38791        56.63734        -1.73618
H         51.48928        57.59441        -1.92895
O         68.57610        38.01714         1.99743
H         68.49089        37.10878         2.36080
O         65.90556        59.88989         2.59906
H         65.95978        59.11229         3.19490
O         66.04432        54.87506         2.98279
H         66.13007        53.91651         3.17428
O         43.89712        47.85620        -1.68740
H         43.80202        48.78207        -1.99765
O         59.94856        41.90035        -2.53693
H         59.09522        41.60631        -2.92365
O         62.53995        44.51767        -2.05690
H         62.53587        43.59504        -2.39602
O         64.61137        39.89337         1.69049
H         65.15841        40.59050         2.13214
O         63.68831        59.08703        -1.02212
H         64.57323        59.45647        -1.28630
O         58.67284        55.03009         3.09773
H         57.93957        55.62313         3.39767
O         38.70190        51.02919         1.94513
H         37.88930        51.54483         2.13520
O         59.65617        50.35137        -1.39441
H         60.44776        49.95458        -1.81799
O         71.45325        59.21827         2.99839
H         70.95876        59.87884         3.52995
O         70.01953        56.94685         3.00017
H         70.73086        57.58524         3.26958
O         69.25422        49.82724        -1.70699
H         69.56064        50.60382        -2.23234
O         69.73380        32.71146        -1.69788
H         70.65224        32.52338        -1.98503
O         63.64496        48.17698        -1.81173
H         63.15457        47.41923        -2.20025
O         57.37464        52.65087         2.93202
H         57.98458        53.34529         3.29322
O         46.23299        54.92236        -2.09134
H         46.41966        53.99655        -2.35867
O         54.68710        44.88431         1.88130
H         55.54679        44.93129         2.36858
O         56.88126        63.13464         2.50976
H         57.72018        63.18306         3.02392
O         68.12577        33.07921         1.51789
H         67.30827        33.57758         1.77090
O         55.93970        59.46229         2.84662
H         55.99598        58.53271         3.17846
H         37.40085        48.98030         0.52746
H         35.46218        50.03194        -0.53623
H         37.61583        53.73519        -1.09030
H         35.53126        52.42183        -1.26604
H         39.12631        48.04686         0.38873
H         39.10934        54.85430        -0.31384
H         41.22591        46.82958         0.12853
H         41.22855        56.07432        -0.19659
H         44.91187        44.65457         0.51290
H         42.85634        45.85295         0.15833
H         44.97813        58.16200        -0.90955
H         42.87508        56.95469        -0.74302
H         46.56735        43.74608         0.09396
H         46.52168        59.16529         0.14458
H         48.66282        42.55166        -0.08869
H         48.62800        60.34413         0.41120
H         52.44121        40.54274        -1.00135
H         50.33328        41.62284        -0.41346
H         52.39519        62.52225         0.27265
H         50.28576        61.29005         0.06856
H         54.09795        39.87509        -2.09864
H         54.12894        63.31330        -0.41060
H         56.12510        38.57915        -1.87751
H         56.11029        64.66896        -0.00576
H         59.80607        36.25352        -1.25914
H         57.72831        37.49467        -1.46459
H         59.80979        66.83761        -0.03598
H         57.71252        65.74723         0.50655
H         61.40067        35.25737        -0.84158
H         61.43214        67.70447        -0.77633
H         63.51442        34.05068        -0.86213
H         63.36665        68.99000        -0.18394
H         67.42153        32.01376        -1.24163
H         65.39868        33.34052        -1.62463
H         67.05985        70.64356        -2.04681
H         65.01522        69.62486        -1.21309
H         68.80045        30.79964         0.41507
H         68.88835        71.60225        -2.44797
H         73.08174        30.75299        -0.16134
H         70.96412        29.59458         0.56339
H         73.16201        33.21042        -0.29313
H         73.16938        35.15443         0.30831
H         73.13043        37.57988         0.57459
H         73.04238        39.50273         1.14402
H         73.07617        41.93423         1.08470
H         73.16796        43.87139         0.20415
H         73.15956        46.30750         0.19707
H         73.16635        48.21456        -0.17987
H         73.14966        50.59924        -0.59629
H         73.17721        52.59883        -0.09221
H         73.16422        54.97270         0.44434
H         72.92945        56.92495        -0.03199
H         72.98310        59.28016         0.39078
H         73.12582        60.95770         1.20021
H         73.39915        63.14094         0.29483
H         72.90232        64.70720        -1.11799
H         72.66712        66.69961        -2.47574
H         72.33878        68.16422        -3.69023
H         72.09188        70.22066        -4.99297
H         70.38322        71.94461        -4.38955
