         429
 CSIRO Nanostructure Databank - Neutral Graphene Oxide Data Set
C          1.41308         3.46071         0.35452
C          0.20170         4.10966         0.23420
C          1.26050         6.31401         0.39562
C          0.12524         5.52188         0.23437
C          1.20417         7.76279         0.30271
C          0.08026         8.48947        -0.05630
C          1.17223        10.69654         0.15650
C          0.04502         9.91969        -0.03992
C          1.18608        12.14473         0.23882
C         -0.07139        12.87489         0.25653
C          1.06998        15.06281         0.43815
C         -0.13907        14.22373         0.34413
C          1.07034        16.47654        -0.12969
C         -0.17396        17.08724        -0.64860
C          1.03009        19.15627        -1.13163
C         -0.18926        18.37577        -1.06461
C          1.03443        20.54317        -1.11606
C         -0.20045        21.30990        -1.04291
C          1.01944        23.44080        -1.26036
C         -0.22480        22.65895        -1.13236
C          1.04024        24.95752        -1.07698
C         -0.18813        25.70879        -0.76666
C          1.09711        27.75638        -0.31117
C         -0.14323        27.01523        -0.40615
C          1.12559        29.15108        -0.03516
C         -0.08716        29.92995         0.12399
C          1.13868        32.05300         0.26576
C         -0.07973        31.29409         0.22466
C          1.19401        33.43986         0.30817
C         -0.00406        34.26663         0.22018
C          1.24778        36.15154         1.21398
C          0.01560        35.56792         0.57228
C          1.29123        37.65417         1.18211
C          3.84927         3.53435         0.67091
C          2.62525         4.19776         0.50097
C          3.72022         6.37357         0.74214
C          2.55252         5.65476         0.55669
C          3.69995         7.82503         0.97525
C          2.39904         8.54631         0.70461
C          3.63282        10.76442         0.73497
C          2.49403         9.96156         0.15384
C          3.65891        12.20149         0.41797
C          2.38618        12.86164         0.32752
C          3.59934        15.04750         0.05873
C          2.39761        14.34485         0.65837
C          3.56851        16.37220        -0.41413
C          2.34263        17.06768        -0.56146
C          3.56694        19.12537        -1.26321
C          2.28497        18.34336        -1.36865
C          3.54241        20.56699        -1.17546
C          2.28492        21.29307        -1.08111
C          3.48051        23.43884        -0.67689
C          2.27356        22.68655        -1.03298
C          3.52683        24.92394        -0.73510
C          2.31967        25.63668        -0.75736
C          3.57369        27.72161        -0.40868
C          2.32437        27.03814        -0.48794
C          3.57396        29.13491        -0.21817
C          2.37021        29.83528         0.00750
C          3.58604        32.04505        -0.18752
C          2.42881        31.28965         0.43768
C          3.68169        33.43159        -0.01893
C          2.48122        34.13980         0.36871
C          3.74335        36.23115         0.76007
C          2.50677        35.50239         0.68044
C          3.73923        37.62076         1.14818
C          2.46134        38.31773         1.21963
C          6.30041         3.59092         0.96418
C          5.07889         4.23213         0.78681
C          6.17658         6.46131         1.22569
C          5.06029         5.71959         0.52319
C          6.18271         7.93637         1.06782
C          4.98126         8.58188         0.94028
C          6.18830        10.79361         0.72314
C          4.94536        10.05600         0.98617
C          6.14012        12.16777         0.43716
C          4.88035        12.87795         0.41470
C          6.15415        15.01268        -0.23396
C          4.88028        14.34990         0.26342
C          6.01924        16.33411        -0.89037
C          4.81381        17.01129        -0.87568
C          6.00833        19.11489        -1.59784
C          4.76282        18.41722        -1.25551
C          5.98498        20.64530        -1.58954
C          4.74480        21.27337        -1.16165
C          6.05994        23.40012        -0.87720
C          4.81348        22.65502        -0.70841
C          6.03200        24.83058        -0.51911
C          4.77069        25.60445        -0.60081
C          6.07423        27.75784        -0.55481
C          4.81244        27.01738        -0.53656
C          6.08237        29.19607        -0.56638
C          4.79892        29.86555        -0.46402
C          6.43518        32.26368        -0.53994
C          4.61632        31.22994        -0.72479
C          6.24439        33.49901         0.00602
C          4.96190        34.27014        -0.27072
C          6.17875        36.23289         0.85965
C          4.96430        35.58372         0.49988
C          6.18074        37.60894         1.27640
C          4.93225        38.29460         1.35499
C          8.76288         3.67290         1.17554
C          7.53282         4.29934         1.15718
C          8.71871         6.54300         1.49436
C          7.46794         5.75387         1.44469
C          8.67239         7.98989         1.34527
C          7.43560         8.66140         1.10622
C          8.65279        10.72242         0.58065
C          7.43031        10.05208         0.79331
C          8.63106        12.03136        -0.16351
C          7.35196        12.84538        -0.01315
C          8.61158        14.74705        -1.03067
C          7.34216        14.14910        -0.44654
C          8.55779        16.25658        -1.28967
C          7.26894        16.99524        -1.33352
C          8.50827        19.15930        -1.59226
C          7.32167        18.47345        -1.41942
C          8.49492        20.64160        -1.96384
C          7.25816        21.35422        -1.46063
C          8.52432        23.49262        -1.51121
C          7.25393        22.72858        -1.19942
C          8.57857        24.88621        -0.94273
C          7.32817        25.58520        -0.56929
C          8.54526        27.72782        -0.58400
C          7.29806        27.05662        -0.61729
C          8.56007        29.14018        -0.41131
C          7.34197        29.88925        -0.46742
C          8.63141        31.86670         0.32864
C          7.46750        31.31482        -0.21120
C          8.58783        33.21181         0.94160
C          7.34734        34.05592         0.80459
C          8.64274        36.18380         1.10540
C          7.41989        35.53379         0.90757
C          8.65853        37.59771         1.46586
C          7.40155        38.23507         1.60066
C         11.21118         3.76359         1.41606
C          9.98180         4.40873         1.39105
C         11.16862         6.58013         1.79800
C          9.91714         5.85328         1.54874
C         11.15351         8.11670         1.65944
C          9.87867         8.74048         1.28718
C         11.15066        10.81054         0.71440
C          9.88577        10.08859         0.84316
C         11.14127        12.18878         0.39919
C          9.83959        12.87548         0.22079
C         11.08493        15.01909        -0.39560
C          9.82343        14.31908        -0.21551
C         11.07932        16.26812        -1.23233
C          9.79530        17.07338        -0.93698
C         10.98189        19.14250        -1.76838
C          9.78504        18.47441        -1.52682
C         11.00932        20.60020        -1.74264
C          9.77376        21.33828        -1.55647
C         11.03186        23.34693        -0.88990
C          9.77109        22.67559        -1.25332
C         11.07181        24.84345        -0.59278
C          9.75938        25.55990        -0.83539
C         11.01635        27.65782        -0.58562
C          9.77831        26.99218        -0.62290
C         11.04091        29.06190        -0.32005
C          9.82135        29.77367        -0.16978
C         11.08639        31.81295         0.40069
C          9.86274        31.14446         0.23122
C         11.05469        33.31234         0.47909
C          9.90138        33.87229         1.33737
C         11.07237        35.94889         0.84914
C          9.86434        35.38421         1.12543
C         11.14294        37.99351         1.47089
C          9.83327        38.31608         1.89150
C         13.68389         3.79280         1.57369
C         12.45924         4.46993         1.53606
C         13.64425         6.64113         1.64569
C         12.45053         5.89819         1.63696
C         13.63580         8.08860         1.51024
C         12.42867         8.78611         1.36248
C         13.61889        10.89829         0.85831
C         12.40275        10.17189         0.96887
C         13.59330        12.28893         0.52978
C         12.33834        12.92562         0.31975
C         13.64067        15.11043        -0.17965
C         12.31053        14.38749         0.08649
C         13.63678        16.50792        -0.75499
C         12.30374        17.13994        -1.06929
C         13.48093        19.10445        -1.91767
C         12.27192        18.46339        -1.71572
C         13.45188        20.56489        -2.32815
C         12.21814        21.26281        -1.80960
C         13.53058        23.42246        -1.57447
C         12.31285        22.63413        -1.29821
C         13.45354        24.92405        -1.80208
C         12.26787        25.60217        -1.13851
C         13.48255        27.76941        -1.07932
C         12.24692        26.95712        -0.94342
C         13.51451        29.10759        -0.46744
C         12.28815        29.75674        -0.17855
C         13.56102        31.83026         0.25902
C         12.30926        31.13635         0.17949
C         13.55574        33.24740         0.57564
C         12.39498        33.91392         0.80825
C         13.58165        36.18734         1.08090
C         12.36262        35.32983         1.30901
C         13.59983        37.49350         1.61080
C         12.40969        38.21867         2.02732
C         16.14537         3.83262         1.82624
C         14.90354         4.50649         1.69951
C         16.10989         6.66148         1.75942
C         14.88617         5.93816         1.68412
C         16.09967         8.10514         1.60440
C         14.89060         8.79282         1.41144
C         16.07824        10.90962         0.99332
C         14.88884        10.22114         1.10075
C         16.12921        12.38564         0.69184
C         14.82162        13.00942         0.29669
C         16.05634        14.88582        -0.81387
C         14.86006        14.29909        -0.23704
C         15.99473        16.15617        -1.51742
C         14.83288        17.05106        -1.44411
C         15.91238        19.17653        -2.31969
C         14.74419        18.38378        -1.91937
C         15.93163        20.61831        -2.15908
C         14.72085        21.31496        -1.99265
C         15.90330        23.55719        -2.28664
C         14.69174        22.74408        -1.87662
C         15.97090        24.90304        -1.57755
C         14.78405        25.58404        -1.45793
C         16.01656        27.66035        -0.68023
C         14.80163        27.03899        -1.22954
C         15.97249        28.98275        -0.25951
C         14.74911        29.75389        -0.24842
C         16.04069        31.84321         0.32389
C         14.77423        31.14393         0.10847
C         16.08471        33.23404         0.52801
C         14.82417        34.01019         0.45938
C         16.17068        36.22053         0.78358
C         14.82464        35.50616         0.64041
C         16.09309        37.42958         1.69254
C         14.88059        38.06952         1.92974
C         18.60813         3.85753         2.12456
C         17.33708         4.54628         1.98232
C         18.56969         6.74197         2.27095
C         17.31799         5.96943         1.94687
C         18.57008         8.12740         1.67157
C         17.36312         8.79001         1.52463
C         18.58892        10.75764         0.62030
C         17.38730        10.29038         1.41168
C         18.49310        11.91532        -0.27049
C         17.19892        12.71357        -0.33285
C         18.40260        14.51054        -1.55926
C         17.22877        14.08988        -0.87766
C         18.33768        15.72463        -2.31154
C         17.09137        16.41661        -2.36254
C         18.33446        19.24909        -2.84514
C         17.05673        18.60908        -2.85364
C         18.39435        20.61630        -2.42588
C         17.17308        21.31342        -2.25519
C         18.51251        23.45615        -1.88724
C         17.20763        22.77999        -2.28569
C         18.44972        24.80131        -1.26956
C         17.23437        25.50751        -1.18703
C         18.41259        27.43515        -0.18972
C         17.23441        26.86367        -0.63322
C         18.45567        28.81780         0.32514
C         17.16303        29.61994         0.33123
C         18.48231        31.70801         0.66509
C         17.24340        31.08598         0.40655
C         18.52103        33.12319         0.90852
C         17.30887        33.89563         0.84170
C         18.53483        35.89585         1.55521
C         17.33814        35.29494         1.12042
C         18.53229        37.27368         2.00886
C         17.31175        37.97468         2.14126
C         19.79325         4.53416         2.13193
C         21.01302         6.66409         1.84890
C         19.84007         5.96838         2.04565
C         21.01218         8.06174         1.57759
C         19.83395         8.78184         1.42072
C         20.98068        10.68497         0.20437
C         19.80668        10.10510         0.78188
C         20.93792        11.87868        -0.49958
C         19.71926        12.53010        -0.78222
C         20.73967        14.23754        -2.25743
C         19.62796        13.75063        -1.53533
C         20.67779        15.42543        -2.98426
C         19.49827        16.17473        -3.00868
C         20.77207        19.20483        -2.98573
C         19.53510        18.57789        -3.17480
C         20.83159        20.50701        -2.47259
C         19.66505        21.25040        -2.21197
C         20.80745        23.15683        -1.05939
C         19.70116        22.60086        -1.67990
C         20.78538        24.49497        -0.59636
C         19.65786        25.30166        -0.68776
C         20.87556        27.51307        -0.39393
C         19.68538        26.65465        -0.01456
C         20.88249        28.85497        -0.17912
C         19.71794        29.57051         0.28617
C         20.94344        31.66012         0.80192
C         19.71797        30.94744         0.59542
C         20.95742        32.99187         1.12734
C         19.75491        33.76336         1.20617
C         20.94762        35.80782         1.99667
C         19.76385        35.15003         1.58871
C         20.93446        37.14399         2.39979
C         19.74463        37.86785         2.42602
O          4.07502        10.52806         2.09007
O         11.83111        22.64284         0.11684
O         14.72813        34.91577        -0.72388
O          6.51406         6.02472         2.56562
O         11.12176         7.46065         2.96767
O         17.42731        11.69751        -1.33281
O         13.05352        15.10016         1.15700
O          0.95070        16.20547         1.34212
O          4.10706        22.92604         0.54934
O          7.93814        16.46938        -2.59213
O          9.54542        13.92177         1.18450
O          5.88733        19.87828        -2.86038
O         19.49518        17.32188        -3.81110
O         11.15776        37.21560         0.28338
O         14.17602        27.74796        -2.37093
O         17.66408        28.97747         1.56226
O         16.95906        17.32641        -3.41133
O         12.93035        17.35134         0.23290
O          1.04948        24.34247        -2.43046
O          5.77614        15.06185         1.19016
O          2.80441         8.27819         2.06633
O         18.09356        23.35794        -3.30814
O          6.79476        25.08464         0.73160
O          7.62546        33.31351         2.06204
O          5.54965        31.86151        -1.55781
O          1.17953        35.78532         2.63937
H          1.21573        34.80593         2.68788
O         15.64110        23.88265        -3.69585
H         16.52316        24.07088        -4.09915
O         12.27298        35.24456         2.77962
H         11.54371        34.60516         3.00111
O          2.20529        17.91817        -2.78737
H          2.37310        18.71027        -3.34156
O         11.09301        15.88102        -2.63562
H         10.34488        15.25215        -2.79002
O          8.84186        14.16949        -2.36376
H          8.25434        14.68007        -2.97775
O         13.22557        25.08486        -3.23479
H         14.06072        24.80390        -3.68953
O         17.63798        10.76642         2.78851
H         17.44861        11.73952         2.78306
O          4.93073        34.63662        -1.68214
H          5.03686        33.79925        -2.18873
O         16.49919        36.77401        -0.52489
H         16.12057        36.15072        -1.18920
O          8.47979        23.68403        -2.96960
H          8.48385        22.78230        -3.37826
O         10.74142        33.77150        -0.88005
H         11.47987        33.50592        -1.46873
O          8.43485        20.74052        -3.42812
H          7.57545        20.32475        -3.69100
O          2.64676        14.37769         2.09862
H          2.33389        15.25658         2.41540
O          5.35538         5.88496        -0.90957
H          4.69167         5.36489        -1.41051
O          8.76891        11.61803        -1.55214
H          8.75793        12.43127        -2.11727
O         19.81167        26.37635         1.42327
H         19.56962        27.19627         1.90592
O         13.37388        20.57797        -3.79596
H         13.44656        21.51100        -4.09044
O         16.55425        13.09164         1.92370
H         15.74789        13.28688         2.44892
O         11.20313        24.97393         0.86260
H         11.63173        24.14373         1.18172
O          2.86022         9.80595        -1.26030
H          2.07588         9.45814        -1.73608
O          2.71550        31.26667         1.88371
H          2.02723        30.71121         2.30743
O          9.71967        17.25049         0.49889
H         10.61169        17.48359         0.83893
O         10.15970        33.53785         2.71964
H          9.28170        33.52873         3.16954
O         18.52621         6.97073         3.73379
H         17.84029         7.65303         3.90148
H          1.45815         2.36222         0.33648
H         -0.72311         3.52692         0.12086
H         -0.85904         5.99233         0.10277
H         -0.85385         7.96723        -0.30831
H         -0.93561        10.39222        -0.19289
H         -1.00896        12.30421         0.21200
H         -1.11942        14.71862         0.38072
H         -1.11570        16.52823        -0.56418
H         -1.15057        18.83963        -1.32980
H         -1.15297        20.76931        -0.95814
H         -1.18782        23.18807        -1.14916
H         -1.15984        25.20782        -0.87675
H         -1.09088        27.53326        -0.20518
H         -1.05772        29.41690         0.10399
H         -1.04210        31.82398         0.27114
H         -0.93162        33.81319        -0.15873
H         -0.89560        36.18128         0.50768
H          0.33631        38.19880         1.23163
H          3.85078         2.43692         0.75814
H          2.48005        39.41664         1.28124
H          6.33044         2.48974         0.96410
H          4.92016        39.36306         1.61726
H          8.82904         2.58765         1.00457
H          7.37741        39.28220         1.93944
H         11.24326         2.66865         1.31160
H          9.68483        39.15753         2.58649
H         13.70218         2.69362         1.53677
H         12.52768        38.97788         2.81526
H         16.16307         2.73259         1.82734
H         14.89195        39.02613         2.47547
H         18.59842         2.75863         2.17070
H         17.30908        38.94735         2.65720
H         20.74424         3.98067         2.15975
H         21.96881         6.12100         1.79954
H         21.98159         8.54245         1.38623
H         21.95326        10.19381         0.34067
H         21.88247        12.30356        -0.86644
H         21.67455        13.66194        -2.27216
H         21.55339        15.77724        -3.54485
H         21.69741        18.67143        -3.23992
H         21.81612        20.97137        -2.32145
H         21.71719        22.55914        -0.90765
H         21.68155        24.88905        -0.09729
H         21.78495        27.01995        -0.76901
H         21.79657        29.42531        -0.40258
H         21.89503        31.11317         0.75340
H         21.92532        33.47444         1.31792
H         21.90206        35.26529         2.01433
H         21.87158        37.62190         2.71772
H         19.73982        38.91111         2.77277
