         404
 CSIRO Nanostructure Databank - Neutral Graphene Oxide Data Set
C          1.92066         2.02852         2.18854
C          1.83338         3.44902         2.00213
C          2.97587         1.31729         1.69058
C          2.73295         4.13488         1.22893
C          1.43405         6.25330         1.23796
C          1.32262         7.61791         1.02237
C          2.65191         5.57502         1.02975
C          2.44670         8.38571         0.64890
C          1.19617        10.54998         0.71086
C          1.16969        11.96615         0.73905
C          2.34387         9.82240         0.43123
C          2.29169        12.74596         0.48693
C          1.27513        14.85863         1.31969
C          1.33172        16.24052         1.61765
C          2.38311        14.15204         0.83915
C          2.51385        16.94871         1.52641
C          2.60777        18.34191         1.86626
C          4.02184         1.97757         0.95506
C          3.78528         3.38439         0.45118
C          5.18180         1.32827         0.62293
C          5.06256         4.16738         0.23958
C          3.79642         6.31500         0.61868
C          3.69448         7.72296         0.48916
C          5.02880         5.61332         0.24432
C          4.91409         8.52886         0.29460
C          3.49694        10.53822        -0.13348
C          3.46546        12.10040        -0.10985
C          4.82773         9.93114        -0.11314
C          4.75235        12.79935        -0.16177
C          3.63402        14.84337         0.63837
C          3.79807        16.21366         1.25195
C          4.75321        14.20255         0.11639
C          4.85197        17.08940         0.63478
C          3.77850        19.02935         1.72877
C          4.94131        18.43157         1.08196
C          6.29243         2.03072         0.02872
C          6.23098         3.47561        -0.09632
C          7.45508         1.36349        -0.30585
C          7.39126         4.16473        -0.60744
C          6.13704         6.31680        -0.21029
C          6.22064         7.77166        -0.08260
C          7.25698         5.61345        -0.87279
C          7.26227         8.54648        -0.72961
C          5.97640        10.66524        -0.42461
C          5.94069        12.11741        -0.48252
C          7.22263         9.94725        -0.67406
C          7.16273        12.87324        -0.71297
C          5.93846        14.98077        -0.32877
C          5.93822        16.47278        -0.14025
C          7.20889        14.26102        -0.59596
C          7.22643        17.22506        -0.32603
C          6.10622        19.18667         0.92605
C          7.29028        18.66155         0.24822
C          8.61776         2.05861        -0.76068
C          8.53484         3.48518        -0.99533
C          9.82976         1.37125        -0.85022
C          9.71118         4.18310        -1.58801
C          8.40558         6.38650        -1.45699
C          8.41117         7.91321        -1.48214
C          9.74187         5.71359        -1.80247
C          9.71593         8.54870        -1.04437
C          8.42136        10.66250        -0.95163
C          8.37246        12.12001        -1.10240
C          9.67984         9.97373        -0.94770
C          9.68955        12.87885        -1.14334
C          8.45210        15.02017        -0.70923
C          8.48888        16.47308        -0.50052
C          9.64900        14.33305        -0.88694
C          9.68378        17.18997        -0.45101
C          8.60963        19.20551         0.51012
C          9.75460        18.56086         0.04177
C         11.05843         2.04545        -1.05250
C         11.03467         3.47139        -1.46340
C         12.27397         1.38950        -0.98731
C         12.27759         4.25773        -1.28413
C         10.97375         6.38956        -1.19955
C         10.93613         7.80661        -0.99621
C         12.20908         5.69686        -1.12287
C         12.15236         8.49644        -0.68595
C         10.88250        10.70998        -0.73274
C         10.93434        12.12666        -0.83075
C         12.08425         9.93414        -0.37032
C         12.12246        12.84708        -0.64589
C         10.91356        15.05090        -1.09603
C         10.95045        16.55744        -0.86089
C         12.19137        14.27122        -1.03850
C         12.24967        17.20041        -0.55861
C         11.01471        19.21633         0.13591
C         12.24513        18.58280        -0.15023
C         13.50717         2.10467        -1.09659
C         13.47783         3.56195        -1.12845
C         14.71184         1.41479        -1.05130
C         14.72396         4.27003        -0.96459
C         13.42644         6.40536        -0.82373
C         13.38869         7.82370        -0.60324
C         14.68021         5.71072        -0.78403
C         14.62615         8.56451        -0.40026
C         13.37633        10.68356        -0.12421
C         13.34779        12.18191        -0.18692
C         14.64762         9.96746        -0.30979
C         14.67246        12.90818        -0.24597
C         13.48908        15.04979        -0.92013
C         13.45671        16.51122        -0.67012
C         14.72740        14.34093        -0.57284
C         14.70317        17.18386        -0.43869
C         13.47270        19.26751        -0.01409
C         14.70746        18.60015        -0.18225
C         15.96096         2.10239        -0.98977
C         15.92371         3.54485        -0.93493
C         17.17761         1.40764        -0.96219
C         17.20844         4.23378        -0.82177
C         15.86755         6.42488        -0.50513
C         15.87278         7.84511        -0.34823
C         17.16489         5.73191        -0.56029
C         17.09129         8.56419        -0.22825
C         15.88244        10.71026        -0.39749
C         15.89470        12.11262        -0.41361
C         17.13251         9.97528        -0.34609
C         17.12268        12.85924        -0.68053
C         15.93062        15.03367        -0.51376
C         15.93620        16.47854        -0.46428
C         17.17531        14.32044        -0.47562
C         17.17416        17.16022        -0.33356
C         15.94588        19.27555        -0.05653
C         17.17327        18.58895        -0.15425
C         18.43233         2.07055        -0.73547
C         18.41166         3.46341        -0.51756
C         19.67957         1.38514        -0.72746
C         19.64143         4.14263        -0.10049
C         18.32688         6.36495         0.11811
C         18.33219         7.85990         0.14209
C         19.63182         5.62653         0.19023
C         19.63568         8.54258         0.08461
C         18.37870        10.64884        -0.26180
C         18.44497        12.07518        -0.56837
C         19.61432         9.96127        -0.03081
C         19.64369        12.84142        -0.22177
C         18.39532        15.00234        -0.38754
C         18.41576        16.45214        -0.33617
C         19.62748        14.25460        -0.22228
C         19.65355        17.15943        -0.30953
C         18.41349        19.26060        -0.01543
C         19.65578        18.60996        -0.12921
C         20.91993         2.07561        -0.60236
C         20.92751         3.48757        -0.34468
C         22.16501         1.41326        -0.67825
C         22.11932         4.22328        -0.21615
C         20.88844         6.37787         0.04858
C         20.85240         7.81312         0.03173
C         22.10122         5.66835        -0.05795
C         22.09719         8.52269        -0.07973
C         20.83418        10.68690         0.03808
C         20.83622        12.12870         0.05228
C         22.07521         9.96836         0.02431
C         22.03139        12.85484         0.30677
C         20.84604        14.95971        -0.03189
C         20.86079        16.37886        -0.24505
C         22.06926        14.26165         0.21197
C         22.12698        16.94893        -0.46643
C         20.82546        19.41554         0.13259
C         22.12215        19.07945        -0.27178
C         23.38246         2.11941        -0.52117
C         23.37267         3.54531        -0.32063
C         24.62468         1.44505        -0.56798
C         24.59807         4.26572        -0.21545
C         23.34323         6.38621        -0.10947
C         23.31202         7.80994        -0.15446
C         24.59224         5.69738        -0.14732
C         24.57619         8.52274        -0.39607
C         23.26933        10.67114         0.18419
C         23.25141        12.08549         0.58366
C         24.52993        10.04102        -0.15991
C         24.56204        12.83736         0.64864
C         23.33819        14.98549         0.31664
C         23.35957        16.41302         0.00287
C         24.52864        14.30290         0.50090
C         24.52561        17.21258         0.04174
C         23.40325        19.50252         0.12011
C         24.56728        18.66974        -0.05035
C         25.83855         2.13519        -0.38003
C         25.83601         3.56069        -0.19956
C         27.07867         1.45235        -0.41401
C         27.07004         4.24915        -0.00515
C         25.84728         6.40683        -0.14045
C         25.87774         7.83011        -0.27176
C         27.07529         5.69292        -0.02869
C         27.08742         8.56555        -0.35815
C         25.80206        10.74047         0.03146
C         25.80670        12.12939         0.28142
C         26.97956        10.03543        -0.35661
C         27.00723        12.88151         0.21163
C         25.80463        15.02975         0.62414
C         25.79756        16.55632         0.41486
C         27.06287        14.31119         0.38469
C         27.07819        17.19393         0.08082
C         25.82817        19.30590        -0.08187
C         27.07270        18.60960        -0.14205
C         28.29375         2.08244        -0.10571
C         28.27909         3.51097         0.17347
C         29.49555         1.30020        -0.28941
C         29.47012         4.26809         0.45152
C         28.30764         6.42211         0.01094
C         28.35061         7.84701        -0.20084
C         29.50933         5.69022         0.27989
C         29.65446         8.45487        -0.09159
C         28.06479        10.88600        -0.63306
C         28.17910        12.19918        -0.17589
C         29.92303         9.82341        -0.44923
C         29.47596        12.84073         0.14609
C         28.26789        15.01542         0.17835
C         28.27773        16.45947         0.06776
C         29.51411        14.31241         0.05115
C         29.52691        17.13019        -0.14758
C         28.30062        19.26917        -0.33773
C         29.52947        18.55755        -0.33544
C         30.69219         1.58870         0.36443
C         30.65353         3.65063         0.90798
C         32.02699         1.26293         0.06208
C         31.94672         4.22619         0.82574
C         30.75233         6.35254         0.50444
C         30.79304         7.76808         0.40561
C         31.97450         5.64670         0.72030
C         32.00975         8.46877         0.74617
C         30.86028        10.60881         0.15713
C         30.76002        12.08672         0.31600
C         31.95548         9.94249         0.86369
C         32.02862        12.84803         0.25637
C         30.74308        14.97404        -0.02927
C         30.75190        16.40966        -0.15469
C         32.00373        14.24757         0.02821
C         31.99211        17.09212        -0.31458
C         30.76341        19.21799        -0.52449
C         31.98427        18.51268        -0.51262
C         33.15953         2.02589         0.49402
C         33.15437         3.44862         0.82055
C         34.40777         1.37647         0.38454
C         34.39517         4.16008         0.92007
C         33.21393         6.33949         0.86204
C         33.20275         7.78152         0.95047
C         34.40270         5.58707         1.00964
C         34.47815         8.51220         1.16734
C         33.23503        10.76633         0.96964
C         33.23829        12.15089         0.43770
C         34.52862        10.02807         1.09705
C         34.47358        12.81167         0.24446
C         33.24332        14.94316        -0.06605
C         33.23789        16.38644        -0.27386
C         34.45510        14.20809        -0.00167
C         34.44042        17.09877        -0.45346
C         33.22328        19.18724        -0.71236
C         34.42777        18.50316        -0.69715
C         35.63460         2.03144         0.59200
C         35.65127         3.44253         0.85092
C         36.85498         1.30130         0.50686
C         36.90731         4.09201         0.94792
C         35.67555         6.31884         1.21397
C         35.73411         7.76901         0.92226
C         36.97677         5.55130         1.21349
C         36.91519         8.42099         0.62600
C         35.76660        10.69653         0.63079
C         35.72821        12.06111         0.31100
C         36.97098         9.88777         0.46209
C         36.95369        12.75798        -0.02633
C         35.74452        14.91220        -0.11639
C         35.74339        16.39941        -0.32483
C         36.96112        14.09583        -0.35039
C         36.93484        17.07634        -1.00365
C         35.70036        19.29269        -0.95584
C         36.96562        18.53865        -0.62635
C         38.07985         1.94836         0.58684
C         38.09699         3.36405         0.77469
C         39.34380         1.21168         0.61909
C         39.40096         4.02698         0.89310
C         38.19298         6.30318         0.81970
C         38.14638         7.64005         0.49095
C         39.46345         5.55758         0.85023
C         39.34985         8.27104        -0.11317
C         38.14589        10.51427         0.07885
C         38.25015        12.01716         0.24602
C         39.35014         9.75836        -0.31218
C         39.43562        12.66319        -0.49239
C         38.23580        14.82356        -0.55784
C         38.25112        16.33126        -0.72557
C         39.46782        14.13146        -0.16039
C         39.38990        17.04016        -0.13907
C         38.08752        19.15595        -0.19785
C         39.32941        18.43296         0.06037
C         40.54037         1.83343         0.58052
C         40.60025         3.31370         0.29758
C         41.88004         4.02221         0.64753
C         40.72917         6.17179         0.47411
C         40.69308         7.53357        -0.08317
C         41.91655         5.39536         0.61288
C         41.92619         8.34898        -0.08536
C         40.71180        10.49678        -0.40494
C         40.72438        11.94949        -0.16478
C         41.93120         9.69081        -0.19106
C         41.81432        12.65894         0.30713
C         40.61847        14.81105         0.20377
C         40.50974        16.28593         0.55406
C         41.78980        14.06169         0.46990
C         41.78962        17.07423         0.52337
C         40.49132        19.12903         0.45140
C         41.73164        18.44085         0.56074
O         17.85773        12.41936        -1.86958
O         23.90920        12.35578         1.87986
O         10.31176         3.54369        -2.76421
O          5.94191         8.24699         1.29075
O         25.80631        15.95579         1.75860
O          8.99639        12.53243        -2.37914
O         29.10548        10.39880        -1.42240
O         19.58875         4.67476         1.30502
O         12.57352        10.20183         1.00690
O         29.93570        12.40374         1.50576
O         34.62028         9.33597         2.38281
O         24.49223         9.44427        -1.52404
O          7.34471         5.89642        -2.33365
O         39.84877         7.57657        -1.29738
O         17.49111         5.24503        -1.90239
O         18.05794         7.03884         1.37280
O          5.52827        15.87891        -1.44025
O         39.61112         4.75386         2.11251
O         38.52739        15.45574        -1.89393
O         36.36520         5.96620         2.47389
O         13.01013        14.53717        -2.23137
O         36.00082        15.88008         1.01152
O         13.94059        12.74377         1.04869
O         22.17319        18.07028        -1.27417
O          7.08057        18.36039        -1.19637
O         39.93244        10.13301        -1.59002
O         32.35985        10.56445         2.11751
O         10.86901        15.98560        -2.21087
O         30.54255         2.40690         1.51362
O          3.19029        11.32424        -1.31592
O         40.08831        16.25278         1.97902
H         40.05324        17.18365         2.28906
O         39.13342        12.56407        -1.90717
H         39.79189        13.09417        -2.40194
O         36.65160        17.03925        -2.42401
H         37.26097        16.36538        -2.81461
O          8.26853         8.29437        -2.88359
H          8.75760         7.62071        -3.41261
O         40.42504         3.45748        -1.15668
H         41.18141         3.01609        -1.59679
O         35.64991        20.55087        -0.27856
H         35.56705        20.37990         0.68182
O          4.35409        15.90701         2.61435
H          4.27801        16.73247         3.14145
O          3.21340         3.22969        -0.90123
H          3.87199         2.74444        -1.44319
O          9.89410         5.97304        -3.22750
H         10.22750         5.13174        -3.62904
O         38.51611        12.21086         1.66676
H         37.71566        11.95050         2.17071
H          1.14748         1.52732         2.78720
H          1.03646         3.98733         2.53516
H          3.07940         0.24301         1.90337
H          0.53910         5.68661         1.52831
H          0.34328         8.09699         1.15028
H          0.29074        10.03049         1.05342
H          0.24827        12.43808         1.10706
H          0.30842        14.34978         1.43086
H          0.40861        16.75938         1.91620
H          1.71100        18.84825         2.25413
H          5.31384         0.26624         0.88081
H          3.84130        20.08544         2.02772
H          7.51804         0.27480        -0.16104
H          6.16969        20.18083         1.39255
H          9.84908         0.29270        -0.63419
H          8.70082        20.15014         1.06569
H         12.30206         0.30629        -0.79786
H         11.02901        20.26197         0.47736
H         14.70371         0.31526        -1.02124
H         13.46650        20.33552         0.24965
H         17.16858         0.31296        -1.06979
H         15.94903        20.36052         0.12625
H         19.69226         0.29763        -0.89098
H         18.40165        20.34545         0.16852
H         22.19357         0.32608        -0.84325
H         20.67069        20.34983         0.69304
H         24.64289         0.35721        -0.73041
H         23.54421        20.48930         0.58522
H         27.08112         0.37677        -0.64473
H         25.85152        20.40522        -0.11967
H         29.45403         0.46709        -1.00675
H         28.31346        20.35928        -0.48521
H         32.22799         0.38528        -0.57098
H         30.77405        20.30675        -0.68209
H         34.42265         0.30910         0.11828
H         33.22358        20.27539        -0.87238
H         36.81448         0.20917         0.38175
H         35.73140        19.52496        -2.05674
H         39.28926         0.11737         0.72464
H         38.06739        20.23901        -0.00029
H         41.47699         1.25731         0.63329
H         42.81330         3.44658         0.73581
H         42.89265         5.90331         0.64637
H         42.88012         7.82938         0.08522
H         42.89045        10.22444        -0.11879
H         42.74895        12.13050         0.54757
H         42.70182        14.56257         0.81964
H         42.75677        16.56252         0.62342
H         40.46251        20.22313         0.54654
H         42.65643        19.02802         0.65949
