         634
 CSIRO Nanostructure Databank - Neutral Graphene Oxide Data Set
C         23.16109        69.62413         2.13236
C         23.18679        71.00393         2.55155
C         22.00698        71.67708         2.95334
C         23.24578        73.74528         3.23195
C         22.05088        73.02623         3.30363
C         25.47137        65.60066         0.50101
C         25.46332        66.97473         0.79296
C         24.28134        67.64621         1.19713
C         25.47058        69.87150         1.23935
C         24.26057        69.02025         1.52640
C         25.70208        70.99130         2.26498
C         24.40807        71.71830         2.55167
C         25.68059        73.83419         2.68706
C         24.44140        73.10152         2.83682
C         27.88864        61.39776        -0.50738
C         27.90015        62.80193        -0.34392
C         26.69461        63.52256        -0.06191
C         27.92056        65.63584         0.22557
C         26.67684        64.90298         0.20245
C         27.94058        67.01530         0.43875
C         26.71234        67.72217         0.72969
C         27.94693        69.84104         0.89902
C         26.72637        69.08836         0.97392
C         27.96263        71.22171         1.18793
C         26.65161        71.89403         1.48072
C         28.02641        73.97199         1.97493
C         26.78158        73.28342         2.05413
C         30.30188        57.10735        -0.47172
C         30.30349        58.51341        -0.57461
C         29.10040        59.25579        -0.58756
C         30.34713        61.38037        -0.71942
C         29.09659        60.67167        -0.61303
C         30.36870        62.81797        -0.69978
C         29.14485        63.49303        -0.40398
C         30.45907        65.67171        -0.15319
C         29.17415        64.89358         0.03422
C         30.37629        67.14758        -0.08180
C         29.17266        67.76628         0.32210
C         30.34821        69.94288         0.43415
C         29.15534        69.17520         0.54687
C         30.33691        71.34013         0.65856
C         29.15677        71.97233         1.07796
C         30.46103        74.02811         1.54979
C         29.19888        73.37569         1.49024
C         32.73943        52.77768        -0.03653
C         32.75195        54.25847         0.23937
C         31.49835        54.99133        -0.13126
C         32.77852        57.08134        -0.45888
C         31.51272        56.36483        -0.35561
C         32.78326        58.49991        -0.62102
C         31.56259        59.21950        -0.64701
C         32.79389        61.34448        -0.91643
C         31.56031        60.64477        -0.76049
C         32.77324        62.75470        -1.20238
C         31.58325        63.52427        -0.99991
C         32.75534        65.95172        -1.17252
C         31.55579        65.02807        -0.96215
C         32.82029        67.26480        -0.49689
C         31.56252        67.92098        -0.18734
C         32.83031        69.99816         0.25268
C         31.57464        69.27743         0.15410
C         32.83070        71.35788         0.30770
C         31.54599        72.15641         0.28354
C         32.90965        74.03888         1.27080
C         31.65251        73.43857         1.08632
C         35.20764        48.46403        -0.23771
C         35.15618        49.92148        -0.15122
C         33.96476        50.62169        -0.17738
C         35.17738        52.79202        -0.23103
C         33.92418        52.06800        -0.13088
C         35.16923        54.19192        -0.41319
C         33.98938        54.94355        -0.28907
C         35.25624        57.05542        -0.67085
C         33.99185        56.35328        -0.47082
C         35.26019        58.51198        -0.73520
C         34.03494        59.21018        -0.73408
C         35.26982        61.33947        -0.98339
C         34.02904        60.63619        -0.89041
C         35.27374        62.73518        -1.30498
C         34.01954        63.28323        -1.65171
C         35.24989        65.78016        -0.99786
C         34.06758        65.43053        -1.55333
C         35.25673        66.94858        -0.02123
C         34.02419        67.82070        -0.17103
C         35.35555        69.93562         0.15152
C         34.08386        69.17852         0.48813
C         35.35519        71.33520         0.20472
C         34.08985        72.14536         0.08111
C         35.36436        74.08441         0.96211
C         34.13337        73.45187         0.84496
C         37.65655        44.11763         0.28281
C         37.52923        45.57549         0.61653
C         36.49502        46.28404        -0.32116
C         37.57643        48.50558         0.37866
C         36.35516        47.76648        -0.02014
C         37.63793        49.95169         0.04771
C         36.41211        50.64372        -0.10104
C         37.65599        52.75189        -0.15605
C         36.42390        52.06269        -0.19570
C         37.62487        54.25404        -0.07766
C         36.45342        54.84129        -0.87629
C         37.72814        57.05494        -1.09106
C         36.42979        56.35245        -0.79688
C         37.73979        58.53857        -0.81960
C         36.50174        59.22615        -0.80201
C         37.73249        61.38810        -0.97064
C         36.50709        60.65602        -0.89452
C         37.72333        62.82053        -1.10455
C         36.49575        63.49720        -1.31016
C         37.78610        65.69073        -1.10575
C         36.48152        64.99458        -1.34497
C         37.81965        67.05363        -0.49300
C         36.57555        67.74022        -0.03501
C         37.77652        69.93093        -0.26322
C         36.57372        69.23005        -0.03597
C         37.79186        71.35746        -0.07671
C         36.57461        72.04638         0.20735
C         37.80594        74.13766         0.51731
C         36.58927        73.45513         0.53280
C         40.21002        39.92291        -0.29357
C         40.13754        41.35921        -0.15585
C         38.94925        42.03050        -0.02400
C         40.08979        44.19768         0.46456
C         38.87373        43.46991         0.20430
C         40.07224        45.59507         0.67793
C         38.86115        46.28631         0.61606
C         40.12904        48.45347         0.38406
C         38.83708        47.75842         0.69231
C         40.14238        49.90765         0.04554
C         38.86011        50.63982         0.02324
C         40.14816        52.76083        -0.07542
C         38.88597        52.05798        -0.07198
C         40.12390        54.18009        -0.27297
C         38.93996        54.87511        -0.43144
C         40.20628        57.08987        -0.56919
C         38.92478        56.35477        -0.48766
C         40.22010        58.54673        -0.82147
C         38.95954        59.24737        -0.80141
C         40.20372        61.39023        -0.79068
C         38.96912        60.68908        -0.84147
C         40.23085        62.79492        -0.88660
C         38.99554        63.52110        -1.02115
C         40.26321        65.64755        -0.94415
C         39.03775        64.92313        -0.98710
C         40.24876        67.11512        -0.92189
C         39.05695        67.82625        -0.72832
C         40.22943        69.95960        -0.69021
C         39.02834        69.24252        -0.57028
C         40.20174        71.46064        -0.79477
C         38.99324        72.09670        -0.17277
C         40.24861        74.19964         0.07129
C         39.02008        73.48951         0.12785
C         42.60752        35.59745        -0.24009
C         42.64739        37.10588        -0.34458
C         41.45954        37.79666        -0.41760
C         42.69855        39.99415        -0.52086
C         41.39883        39.23256        -0.39545
C         42.61824        41.28792         0.29117
C         41.43341        42.15003        -0.18861
C         42.65074        44.15509         0.83291
C         41.34615        43.44290         0.59777
C         42.65340        45.63175         0.87811
C         41.35054        46.30918         0.98846
C         42.66394        48.51420         0.60149
C         41.38832        47.82110         0.86586
C         42.63748        49.92720         0.32840
C         41.41707        50.64051         0.17507
C         42.65091        52.74615         0.01919
C         41.39929        52.05704         0.05731
C         42.68730        54.21587        -0.06925
C         41.39593        54.94542        -0.21699
C         42.71451        57.04009        -0.74328
C         41.42687        56.28211        -0.91872
C         42.68890        58.45779        -0.74336
C         41.44988        59.19167        -0.76008
C         42.74275        61.36257        -0.71921
C         41.45721        60.65362        -0.37927
C         42.73464        62.80095        -0.83498
C         41.48767        63.51495        -0.87869
C         42.75984        65.67044        -1.25599
C         41.47597        64.93496        -0.95108
C         42.71824        67.14169        -0.91593
C         41.48131        67.84067        -0.91592
C         42.70541        69.98372        -0.74461
C         41.46475        69.26785        -0.80666
C         42.70793        71.44477        -0.59193
C         41.49497        72.13937        -0.44128
C         42.72636        74.24092        -0.13649
C         41.49415        73.54482        -0.17485
C         45.21377        32.85515        -0.69121
C         43.98331        33.54042        -0.61526
C         45.15762        35.64645        -0.29464
C         43.94512        34.91773        -0.41235
C         45.15022        37.07702        -0.15499
C         43.91563        37.80283        -0.22174
C         45.14539        39.91754         0.01643
C         43.93508        39.20468        -0.17138
C         45.14350        41.35588         0.17423
C         43.91823        42.06396         0.27576
C         45.13801        44.15254         0.62620
C         43.91816        43.44137         0.52508
C         45.11326        45.59712         0.93285
C         43.83249        46.34891         0.82897
C         45.12880        48.50504         0.54598
C         43.87053        47.79981         0.69197
C         45.11922        49.92580         0.36169
C         43.88239        50.63027         0.24919
C         45.11818        52.76741        -0.10101
C         43.87130        52.04722         0.05277
C         45.12550        54.14543        -0.44381
C         43.93645        54.90080        -0.47723
C         45.20482        57.04605        -0.99359
C         43.91432        56.30339        -0.71850
C         45.14985        58.51226        -0.63331
C         43.93420        59.19392        -0.67484
C         45.22902        61.32972        -1.04614
C         43.92244        60.64201        -0.72552
C         45.21168        62.79379        -0.69646
C         43.98308        63.49548        -0.77794
C         45.14940        65.62791        -0.50161
C         43.99614        64.94930        -0.76191
C         45.14936        67.09907        -0.43224
C         43.90144        67.84808        -0.70915
C         45.20026        70.01848        -0.43232
C         43.90253        69.27051        -0.66398
C         45.16483        71.43590        -1.00607
C         43.92273        72.15971        -0.57201
C         45.20591        74.25586        -0.43717
C         43.95168        73.57129        -0.38135
C         46.40546        33.53928        -0.55023
C         47.61908        35.66789        -0.22064
C         46.40811        34.95018        -0.35365
C         47.62797        37.06810        -0.06419
C         46.37406        37.78422        -0.04941
C         47.61227        39.92316         0.16623
C         46.37747        39.20658         0.05972
C         47.61527        41.33441         0.26173
C         46.37192        42.05803         0.30313
C         47.62153        44.20720         0.48202
C         46.36741        43.47086         0.50150
C         47.63114        45.59055         0.47541
C         46.41955        46.35475         0.80949
C         47.59969        48.50554         0.46766
C         46.37672        47.81619         0.57004
C         47.60841        49.94533         0.41039
C         46.35164        50.66306         0.30941
C         47.59781        52.81325         0.06858
C         46.34370        52.06461         0.09407
C         47.64573        54.12158        -0.31148
C         46.42020        54.82697        -0.82643
C         47.64889        57.07124        -0.26313
C         46.35421        56.29035        -0.29720
C         47.61534        58.44633        -0.21405
C         46.39806        59.20835        -0.45673
C         47.69379        61.32866        -0.42416
C         46.44935        60.59942        -0.53928
C         47.67312        62.77080        -0.51195
C         46.44130        63.46013        -0.51478
C         47.63685        65.61543        -0.89765
C         46.45514        64.93244        -0.16799
C         47.70783        67.09644        -0.64181
C         46.44906        67.83138        -0.46558
C         47.70294        69.99013        -0.69956
C         46.41636        69.24762        -0.98626
C         47.67301        71.42193        -0.67335
C         46.45529        72.15074        -0.70992
C         47.69102        74.26458        -0.55704
C         46.44586        73.57045        -0.57271
C         48.84092        37.78914         0.05325
C         50.07364        39.91085         0.28495
C         48.85804        39.19546         0.16817
C         50.08896        41.31337         0.38379
C         48.85367        42.04501         0.35760
C         50.10668        44.14931         0.55969
C         48.87331        43.46261         0.42380
C         50.14241        45.59228         0.52810
C         48.88827        46.32683         0.09276
C         50.05303        48.47596         0.54421
C         48.85998        47.79582         0.45209
C         50.06569        49.92482         0.57468
C         48.82517        50.63431         0.45217
C         50.09375        52.81289         0.27476
C         48.81261        52.13121         0.65272
C         50.14844        54.15269         0.00219
C         48.93841        54.87204        -0.54046
C         50.09139        57.00833        -0.01250
C         48.90687        56.34421        -0.16797
C         50.10201        58.45122         0.34666
C         48.78077        59.22530         0.35664
C         50.15308        61.36075        -0.11580
C         48.89054        60.65244        -0.15682
C         50.15819        62.80299        -0.28666
C         48.92867        63.50107        -0.45997
C         50.14972        65.64792        -0.55729
C         48.93964        64.90543        -0.61889
C         50.13311        67.07479        -0.57198
C         48.90636        67.80061        -0.62020
C         50.13610        69.99904        -0.53243
C         48.90192        69.27781        -0.56946
C         50.12040        71.40767        -0.62825
C         48.91497        72.13147        -0.63988
C         50.15814        74.28350        -0.66131
C         48.92143        73.58430        -0.64150
C         51.31195        42.03289         0.54430
C         52.64020        44.10992         0.93318
C         51.32776        43.41067         0.65560
C         52.61388        45.61169         0.73919
C         51.33707        46.27826         0.60648
C         52.55688        48.42664         0.90925
C         51.35795        47.75142         0.27815
C         52.51575        49.91782         1.00475
C         51.27998        50.61591         0.62399
C         52.52575        52.78506         0.83505
C         51.37583        52.03683         0.15204
C         52.58300        54.22927         0.40189
C         51.40593        54.86138         0.01303
C         52.63406        57.03871         0.11681
C         51.39954        56.32016        -0.35652
C         52.65934        58.48777         0.03667
C         51.38336        59.21423         0.26177
C         52.67533        61.38244         0.22852
C         51.35531        60.68167         0.08211
C         52.65011        62.83887        -0.17964
C         51.39206        63.53222        -0.28595
C         52.64705        65.67869        -0.39673
C         51.39400        64.94205        -0.42074
C         52.63623        67.06049        -0.32559
C         51.35367        67.81135        -0.10888
C         52.59492        69.93141        -0.62543
C         51.40374        69.27219        -0.52025
C         52.62368        71.42988        -0.43997
C         51.39067        72.12619        -1.01419
C         52.62243        74.29345        -0.68131
C         51.41341        73.61757        -0.73099
C         53.80763        46.29997         0.72633
C         55.05026        48.43551         0.99391
C         53.88095        47.74449         0.82117
C         55.06131        49.89651         1.42246
C         53.83898        50.60320         0.86302
C         55.09653        52.82807         0.87313
C         53.85188        52.07273         0.65467
C         55.06328        54.22415         0.78878
C         53.81819        54.92634         0.53348
C         55.00658        57.15664         0.80018
C         53.79814        56.34664         0.40792
C         55.14324        58.40293        -0.07876
C         53.83832        59.16292        -0.10351
C         55.12503        61.30669        -0.23159
C         53.82885        60.61241        -0.49932
C         55.11973        62.75185        -0.50195
C         53.85500        63.51701        -0.36172
C         55.14398        65.64446        -0.44050
C         53.90473        64.94643        -0.43929
C         55.16798        67.08479        -0.34898
C         53.89506        67.84615        -0.07646
C         55.15696        69.96496        -0.43139
C         53.89908        69.19304        -0.80374
C         55.17677        71.40697        -0.49914
C         53.91758        72.12448        -0.92660
C         55.21777        74.26126        -0.85391
C         53.93637        73.59334        -0.41658
C         56.31890        50.68347         1.13382
C         57.54579        52.83312         0.99997
C         56.33044        52.08236         1.00648
C         57.55205        54.24895         0.95183
C         56.29780        54.96281         0.86605
C         57.48273        57.10763         0.93819
C         56.29578        56.37122         0.81995
C         57.42991        58.55594         0.90621
C         56.31224        59.22471         0.43677
C         57.51044        61.37810         0.34336
C         56.29858        60.65998         0.21338
C         57.72003        62.73229        -0.29896
C         56.41668        63.48434        -0.54530
C         57.61490        65.65143        -0.28538
C         56.40011        64.95774        -0.39675
C         57.66305        67.10978        -0.66827
C         56.34750        67.80639        -0.40312
C         57.64063        69.98630        -0.55878
C         56.33679        69.24558        -0.35624
C         57.58060        71.38135         0.06469
C         56.34407        72.12444        -0.37689
C         57.67911        74.20596        -0.69863
C         56.39696        73.56210        -0.64821
C         58.75368        54.99684         1.01270
C         59.92160        57.15747         1.29097
C         58.75053        56.42061         1.07617
C         59.88792        58.57824         1.78118
C         58.59748        59.31397         1.40660
C         59.95378        61.47989         1.00029
C         58.64304        60.78977         1.05255
C         59.98540        62.83294         0.74730
C         58.67204        63.56050         0.58093
C         60.03826        65.64883         0.16554
C         58.80711        64.97666         0.07752
C         60.06485        67.09925         0.10511
C         58.87507        67.82237        -0.11966
C         60.01865        69.96972         0.18000
C         58.86105        69.23947        -0.07433
C         60.04962        71.38824        -0.04870
C         58.87807        72.10763        -0.19192
C         60.13762        74.21859        -0.41567
C         58.88777        73.53091        -0.45932
C         61.13774        59.34572         1.41569
C         62.41550        61.43319         1.12897
C         61.17593        60.71269         1.17957
C         62.46354        62.81751         0.93733
C         61.23082        63.55204         0.68575
C         62.56444        65.63401         0.22045
C         61.24785        64.92605         0.43770
C         62.49865        67.11298         0.52410
C         61.28295        67.79037         0.39373
C         62.53234        69.97883         0.45822
C         61.23162        69.26400         0.71693
C         62.56835        71.34671         0.18111
C         61.36375        72.03399        -0.41127
C         62.58099        74.20048        -0.10546
C         61.35701        73.53782        -0.24757
C         63.68192        63.54794         1.06205
C         64.90219        65.67712         1.12281
C         63.74037        64.93850         0.87276
C         64.94033        67.10164         0.99361
C         63.70966        67.81882         0.76177
C         64.97093        69.94962         0.74891
C         63.73481        69.25378         0.69486
C         64.99199        71.36281         0.57793
C         63.78906        72.06039         0.26588
C         65.02913        74.17721         0.21957
C         63.80933        73.49677         0.10024
C         66.13999        67.81512         1.14188
C         67.39954        69.94797         1.10020
C         66.19303        69.23088         1.00068
C         67.43690        71.35838         0.94023
C         66.22600        72.07102         0.67020
C         67.48295        74.17255         0.59081
C         66.24540        73.48867         0.48816
C         68.65113        72.08848         1.03122
C         68.66055        73.47210         0.85909
O         53.98562        51.13277        -0.49703
O         25.92788        71.97668         0.18297
O         41.25972        47.19136         2.16707
O         45.80476        67.59096         0.84606
O         25.20798        70.67703         0.01456
O         30.18185        65.05506         1.13391
O         37.21652        65.63126        -2.46267
O         37.48972        67.12184         0.95287
O         41.91329        43.49093         1.94953
O         38.01526        48.28575         1.80127
O         34.02372        64.39831        -2.49513
O         42.02656        54.90511         1.08686
O         52.34228        49.06249         2.20644
O         31.72987        65.78242        -2.20549
O         50.84552        58.74152         1.59172
O         40.20736        48.84251        -1.02146
O         55.79847        63.07988        -1.83044
O         39.53916        56.88896         0.73800
O         58.25369        60.30812         2.41762
O         45.87409        45.96706         2.13171
O         58.36981        62.52438        -1.57462
H         57.64866        62.44120        -2.24143
O         36.66499        54.45473        -2.26118
H         35.92053        54.80294        -2.79358
O         53.56715        60.66281        -1.93534
H         53.89414        61.52546        -2.27246
O         51.19012        67.89326         1.36405
H         52.06132        68.20631         1.71451
O         45.99532        56.13321         1.10280
H         46.05205        57.00959         1.53970
O         41.65506        42.61523        -1.54288
H         41.93684        41.83824        -2.08529
O         45.35309        61.27466        -2.52138
H         44.56955        61.72874        -2.89781
O         37.36618        54.62112         1.31596
H         38.20713        54.54972         1.81582
O         57.83454        67.16789        -2.13927
H         57.10688        66.64232        -2.53771
O         53.05373        61.32897         1.63520
H         52.26082        61.52033         2.17825
O         31.32375        72.59361        -1.11465
H         31.03089        71.80789        -1.62446
O         42.36932        40.86600         1.64803
H         42.27665        41.68346         2.19691
O         57.78998        70.12260        -1.99694
H         57.85526        69.20731        -2.36325
O         36.89712        46.14259        -1.69012
H         37.71491        46.66162        -1.83693
O         46.67150        65.01860         1.25907
H         46.46243        65.94686         1.52703
O         45.37306        70.20777         0.98721
H         45.43842        69.31122         1.39755
O         57.45878        71.17891         1.50348
H         57.39067        72.06033         1.92642
O         45.39594        57.09814        -2.43184
H         45.64674        56.18695        -2.73521
O         35.11354        66.39028         1.32722
H         36.03411        66.28095         1.67580
O         26.30320        70.53419         3.47896
H         25.60718        70.14420         4.04630
O         54.91005        49.88205         2.87954
H         54.03022        49.47045         3.06637
O         54.01801        68.94717        -2.23320
H         54.10369        69.82921        -2.66389
O         51.56151        47.83494        -1.16712
H         50.76590        47.42900        -1.58693
O         40.04312        71.72522        -2.25345
H         39.93537        72.69536        -2.35796
O         47.34500        65.46388        -2.32700
H         48.00355        65.98739        -2.83038
O         53.90237        68.19098         1.36247
H         54.17978        67.38945         1.85603
O         51.44749        56.37214        -1.85125
H         52.30335        55.97660        -2.12711
O         54.06606        73.61331         1.04381
H         53.28380        73.12769         1.40695
O         49.14597        54.85443        -2.00264
H         49.97064        55.38368        -2.18395
O         48.70232        52.31800         2.11040
H         47.85633        51.91313         2.39803
O         51.39731        71.99851        -2.47863
H         50.60879        72.47566        -2.81444
O         62.81638        65.55081        -1.22749
H         62.85285        64.59929        -1.46258
O         52.24646        52.76516         2.25868
H         52.85230        53.39071         2.70717
O         46.31961        69.06948        -2.42096
H         45.99935        69.91606        -2.81797
O         41.31728        55.96682        -2.33993
H         41.35882        56.80408        -2.84800
O         51.62240        51.98888        -1.28423
H         52.47873        51.50929        -1.41720
O         58.01795        63.63859         1.87979
H         58.64772        64.03184         2.51904
O         34.04649        72.52452        -1.34012
H         33.13044        72.86021        -1.51223
O         36.97433        45.68465         1.96535
H         37.20021        46.59033         2.29299
O         53.98694        72.09436        -2.36922
H         53.09322        72.30655        -2.73544
O         32.84805        54.36113         1.72924
H         33.73983        54.03385         1.97842
O         37.95744        56.93013        -2.54253
H         37.18655        57.32670        -3.00031
O         59.90291        58.48228         3.24648
H         59.39157        59.25988         3.57568
O         46.50723        54.76846        -2.27936
H         47.47155        54.81833        -2.51749
O         61.50272        71.80665        -1.86046
H         60.70155        72.17311        -2.29246
O         61.07167        69.31863         2.19181
H         61.85427        68.87396         2.58306
O         42.86760        40.32256        -1.94197
H         42.87428        39.47772        -2.43956
O         48.39254        59.37794         1.76314
H         49.23584        59.37194         2.27857
O         54.78268        57.64555         2.15086
H         54.65220        56.87468         2.74042
O         52.50273        71.57320         1.01110
H         53.09072        70.90857         1.43076
O         45.05409        71.36644        -2.47432
H         44.98155        72.28620        -2.80744
O         53.70343        43.51694         0.17695
H         53.53811        43.69061        -0.77213
O         34.12895        68.94163         1.93318
H         34.46803        68.02239         2.07140
O         42.86425        65.64360        -2.72626
H         42.86740        64.70354        -3.00505
O         41.63777        35.05062        -1.14525
H         41.96369        35.18104        -2.05889
O         41.41978        60.64224         1.09734
H         40.66745        60.07359         1.36967
O         48.96041        46.32466        -1.39034
H         48.92644        45.38716        -1.68012
O         55.44528        57.98860        -1.43816
H         55.21715        58.73527        -2.03292
H         23.25848        74.82038         3.46067
H         25.73192        74.86492         3.06999
H         28.07562        74.99807         2.37194
H         30.51359        75.01929         2.02777
H         32.95320        75.01071         1.78964
H         35.42097        75.09439         1.39810
H         37.83789        75.20287         0.79071
H         40.25114        75.27598         0.29807
H         42.72865        75.32359         0.05699
H         45.21731        75.34848        -0.30989
H         47.68785        75.36278        -0.49070
H         50.14566        75.37971        -0.56139
H         52.59967        75.38609        -0.53263
H         55.23989        75.33914        -1.07767
H         57.70922        75.28724        -0.90297
H         60.13792        75.31852        -0.46784
H         62.60220        75.30154        -0.11557
H         65.05095        75.27146         0.10407
H         67.50953        75.26328         0.45506
H         22.24167        69.04077         2.29154
H         21.05179        71.13319         2.96577
H         21.12772        73.53739         3.61131
H         24.52507        65.03960         0.52540
H         23.36047        67.05866         1.33432
H         26.93471        60.85354        -0.44807
H         25.74831        62.96221        -0.03426
H         29.34133        56.57405        -0.41016
H         28.14068        58.72142        -0.52345
H         31.78207        52.23859         0.03142
H         30.53482        54.46504        -0.05248
H         34.28674        47.93056        -0.52091
H         33.01058        50.07346        -0.19653
H         36.72712        43.54117         0.15894
H         35.50707        45.77378        -0.21499
H         39.26536        39.35679        -0.25153
H         38.00089        41.47174        -0.06085
H         42.23574        35.34588         0.79453
H         40.51628        37.22948        -0.44018
H         45.21748        31.76769        -0.85005
H         43.03923        32.98607        -0.71246
H         47.36477        33.00399        -0.59500
H         48.57400        35.12237        -0.25205
H         49.79373        37.23910         0.04625
H         51.02414        39.35746         0.30447
H         52.25981        41.47710         0.59151
H         52.89028        43.91985         2.01624
H         54.74627        45.72624         0.76503
H         56.00444        47.88491         0.99363
H         57.28170        50.15679         1.22288
H         58.50429        52.29817         1.07735
H         59.71180        54.46387         1.10320
H         60.88707        56.63021         1.33131
H         62.09206        58.81262         1.54972
H         63.35152        60.88304         1.30731
H         64.58525        63.01325         1.39408
H         65.81283        65.15367         1.45297
H         67.07224        67.26437         1.33774
H         68.33631        69.40591         1.29916
H         69.58834        71.55184         1.23739
H         69.61053        74.02019         0.93336
