         210
 CSIRO Nanostructure Databank - Neutral Graphene Oxide Data Set
C         30.42794        31.75355         0.66641
C         30.51951        32.99477         0.81313
C         30.57396        36.12207         1.58302
C         30.63043        37.36757         1.69121
C         30.58873        40.47253         1.31662
C         30.49794        41.69817         1.10667
C         32.87860        28.95833         0.66973
C         31.74825        29.51394         0.68192
C         32.85086        31.62817         0.59657
C         31.60292        30.91792         0.65081
C         32.86960        33.14372         0.38532
C         31.59600        33.90290         0.87879
C         32.93476        35.96554         1.37349
C         31.63215        35.21675         1.28112
C         32.99387        37.48097         1.47353
C         31.72393        38.25197         1.52678
C         32.94377        40.37350         1.02126
C         31.72767        39.62463         1.31361
C         32.89429        41.79021         0.75325
C         31.61714        42.51389         0.77761
C         32.81383        44.42056         0.18947
C         31.70622        43.87775         0.46567
C         35.55579        27.42022         0.41863
C         35.39004        28.81899         0.43551
C         34.16139        29.52237         0.57044
C         35.38468        31.67935         0.51703
C         34.10934        30.95810         0.56527
C         35.40268        33.07508         0.63669
C         34.11363        33.75846         1.04116
C         35.37750        36.01367         0.58092
C         34.11138        35.25495         0.77762
C         35.39087        37.47543         0.85579
C         34.23566        38.20877         1.08761
C         35.38042        40.37212         0.64863
C         34.19518        39.66255         0.96600
C         35.36901        41.76950         0.35661
C         34.11449        42.49684         0.43777
C         35.32964        44.66101        -0.10714
C         34.10728        43.90591         0.16942
C         35.36278        45.90296        -0.91702
C         37.90406        27.35628         0.06573
C         36.63060        26.78838         0.26942
C         37.86545        28.79467         0.07159
C         36.63356        29.50937         0.25430
C         37.86084        31.62951         0.26345
C         36.63376        30.94729         0.32619
C         37.91954        33.07731         0.69826
C         36.61722        33.83652         0.57028
C         37.88008        35.96562         0.39657
C         36.64545        35.23533         0.55334
C         37.89783        37.38128         0.41240
C         36.69501        38.13549         0.82307
C         37.86946        40.31380         0.11459
C         36.67923        39.67985         0.69236
C         37.79801        41.69315        -0.21353
C         36.57972        42.41137        -0.03908
C         37.72126        44.39118        -1.19836
C         36.62278        43.87642        -0.25735
C         37.78581        45.91009        -1.34765
C         36.46546        46.40706        -1.23471
C         40.38043        24.60152        -0.33831
C         39.32487        25.27081        -0.14871
C         40.34909        27.36538        -0.39368
C         39.12168        26.65640        -0.14011
C         40.32633        28.79950        -0.34567
C         39.09656        29.50792        -0.09758
C         40.32526        31.64959        -0.12737
C         39.08944        30.93075         0.01583
C         40.31679        33.10405        -0.06792
C         39.12452        33.82069         0.18341
C         40.31369        35.96704        -0.04667
C         39.10639        35.24121         0.17341
C         40.31665        37.40143        -0.07926
C         39.09128        38.11325         0.14673
C         40.28330        40.21227        -0.33352
C         39.07247        39.54654         0.00667
C         40.24092        41.62062        -0.71941
C         39.01176        42.40058        -0.59432
C         40.28837        44.51942        -0.90517
C         39.05264        43.76428        -0.87058
C         40.28333        45.94266        -1.20981
C         38.98797        46.57797        -1.48876
C         40.25287        48.53713        -2.18314
C         39.19927        47.92568        -1.90116
C         42.91564        24.69658        -0.90116
C         41.61552        25.20034        -0.60766
C         42.74668        27.42025        -0.99018
C         41.57188        26.66220        -0.66757
C         42.76199        28.81890        -0.83368
C         41.54324        29.51932        -0.50620
C         42.77767        31.66659        -0.50024
C         41.53166        30.94908        -0.38636
C         42.76659        33.09403        -0.39917
C         41.53598        33.81725        -0.25538
C         42.74286        35.97791        -0.39364
C         41.53291        35.24978        -0.22347
C         42.77670        37.38953        -0.37267
C         41.53707        38.10922        -0.27777
C         42.75460        40.28946        -0.38322
C         41.52257        39.54002        -0.37135
C         42.78586        41.67595        -0.36495
C         41.57434        42.40739        -0.74891
C         42.73461        44.58280        -0.35611
C         41.49908        43.85911        -0.63611
C         42.74589        46.07611        -0.78695
C         41.49417        46.66704        -1.32967
C         42.85732        48.45776        -2.15828
C         41.54948        48.00518        -1.92231
C         43.97083        25.31060        -1.12567
C         45.25000        27.48929        -1.39911
C         43.97548        26.74259        -1.62103
C         45.22964        28.90946        -1.21499
C         44.00899        29.56590        -0.96342
C         45.24946        31.71098        -0.63855
C         44.00124        30.99035        -0.73355
C         45.23663        33.12160        -0.43931
C         43.99200        33.79528        -0.46066
C         45.32092        35.99716        -0.32800
C         43.97902        35.24183        -0.60271
C         45.23052        37.41780        -0.01642
C         44.02991        38.08617        -0.25980
C         45.12875        40.25545         0.37868
C         44.07744        39.57126        -0.46123
C         45.16863        41.72931         0.24629
C         44.01357        42.42081        -0.09175
C         45.22528        44.57334        -0.23143
C         44.02357        43.86083        -0.23023
C         45.27085        45.93781        -0.75913
C         44.09178        46.63160        -1.12529
C         43.90375        47.83157        -1.80508
C         47.57174        27.63246        -1.36016
C         46.52157        26.91406        -1.56163
C         47.82153        28.94737        -1.10740
C         46.51119        29.71788        -1.41053
C         47.69990        31.71596        -0.34838
C         46.50265        31.05727        -0.73426
C         47.64745        33.06573         0.05704
C         46.45807        33.81687        -0.12280
C         47.58853        35.90616         0.68133
C         46.46527        35.22294         0.10846
C         47.51270        37.33644         0.95044
C         46.39295        38.04671         0.55999
C         47.63297        40.20115         1.01744
C         46.33321        39.50044         0.82944
C         47.70427        41.56694         0.36027
C         46.43021        42.39921         0.54049
C         47.82527        44.42472        -0.16641
C         46.47813        43.88991         0.19442
C         47.65856        45.69102        -0.71136
C         46.60304        46.34044        -0.98000
C         50.33026        29.13084        -0.77129
C         49.01239        29.65458        -0.77284
C         50.20716        31.72880        -0.02438
C         48.99816        31.02209        -0.37569
C         50.13447        33.07882         0.46386
C         48.78989        33.67667         0.82601
C         49.92882        35.87113         1.40578
C         48.77363        35.19028         0.89575
C         49.82349        37.19043         1.96483
C         48.52805        38.01645         1.88622
C         49.92143        40.35502         1.84537
C         48.71429        39.54505         1.53640
C         50.07434        41.69250         1.27529
C         48.96666        42.34226         0.65029
C         50.30386        44.23110         0.34251
C         48.99886        43.70178         0.20861
C         51.41527        29.71489        -0.53956
C         52.59488        31.89115         0.24354
C         51.51135        31.06486        -0.12476
C         52.45432        33.05771         0.69145
C         51.26967        33.80494         0.88526
C         52.10423        35.83139         2.19813
C         51.15407        35.11758         1.47160
C         52.06005        36.92018         2.84525
C         50.84381        37.64936         2.81349
C         52.01305        40.70884         2.96845
C         50.85126        39.91527         2.80876
C         52.19573        41.79008         2.35093
C         51.31219        42.45393         1.48705
C         51.31581        43.73842         0.89717
O         50.63537        38.78812         3.58322
O         33.20097        36.59894         2.65321
O         34.46317        35.66960        -0.56180
O         40.95705        41.88624        -1.97145
O         45.25237        39.84882         1.78141
O         36.93831        39.00784         1.97084
O         44.83959        35.70737        -1.68069
O         42.61334        45.67756         0.60463
O         36.33539        44.64806         0.94572
O         46.43816        43.39328         1.58421
O         32.96026        33.37015        -1.02829
H         32.19300        32.94604        -1.46600
O         48.55390        33.25330         2.22742
H         48.55913        32.27220         2.24477
O         44.54323        39.75629        -1.84085
H         43.89318        39.33298        -2.44075
O         38.12978        33.00044         2.16859
H         38.98300        32.53906         2.31889
O         47.91499        37.97772         3.19452
H         48.55521        38.35441         3.83785
O         37.33341        43.85716        -2.49852
H         38.06442        44.01452        -3.13242
O         47.70703        41.28540        -1.07909
H         48.50911        40.76359        -1.29322
O         46.56646        30.01163        -2.84291
H         46.48525        29.16152        -3.32582
O         43.73814        26.71464        -3.03819
H         44.52417        26.31796        -3.46978
O         33.95143        33.56013         2.46302
H         34.76937        33.84161         2.92373
