         334
 CSIRO Nanostructure Databank - Neutral Graphene Oxide Data Set
C         30.32609        57.26096        -0.94996
C         30.32508        58.35432         0.14451
C         29.07988        59.19123         0.13218
C         30.31540        61.20278         0.72763
C         29.10397        60.52073         0.46569
C         32.84862        52.94977        -0.63918
C         32.81353        54.29111        -0.87636
C         31.58580        55.08448        -0.89882
C         32.86617        57.25612        -0.89622
C         31.59105        56.44097        -0.85422
C         32.80678        58.57640        -0.16316
C         31.59766        59.17772         0.13691
C         32.77916        61.26966         0.68755
C         31.56836        60.56121         0.55161
C         35.34867        48.57677        -0.46216
C         35.29801        50.01168        -0.67211
C         34.14373        50.71921        -0.43782
C         35.29582        52.79128        -1.18440
C         34.15529        52.22905        -0.32441
C         35.36364        54.31502        -1.05869
C         34.08360        55.06027        -0.98038
C         35.28954        57.13592        -0.29002
C         34.10426        56.47463        -0.56268
C         35.28496        58.56362        -0.00634
C         34.04707        59.25583         0.07738
C         35.25544        61.31490         0.66375
C         34.02891        60.63244         0.49171
C         37.70457        44.39997         0.67850
C         37.72778        45.83038         0.19141
C         36.54213        46.47416        -0.06132
C         37.81260        48.40378        -1.01555
C         36.51421        47.85583        -0.46450
C         37.81158        49.92624        -1.14058
C         36.56842        50.69656        -0.93867
C         37.86021        52.78737        -0.79800
C         36.60907        52.07428        -0.92047
C         37.80949        54.18643        -0.29550
C         36.52494        54.95522        -0.37318
C         37.73463        57.06097         0.12887
C         36.54511        56.42230        -0.20338
C         37.74484        58.50481         0.34609
C         36.50223        59.22629         0.28087
C         37.72414        61.33007         0.70062
C         36.49167        60.64326         0.55022
C         40.22467        40.16242        -0.04703
C         40.22015        41.56003         0.15294
C         39.00794        42.29108         0.22749
C         40.22064        44.38274         0.51868
C         39.00644        43.67113         0.43659
C         40.18684        45.87087         0.78257
C         38.98788        46.54695         0.15054
C         40.28230        48.61680        -0.23114
C         39.04449        47.85027        -0.29858
C         40.33587        49.96904        -0.55747
C         39.12419        50.68269        -1.03357
C         40.34598        52.93475        -0.83997
C         39.06579        52.13543        -0.81736
C         40.29318        54.11915         0.15833
C         39.04254        54.94868        -0.05624
C         40.22213        57.00086         0.58511
C         38.97490        56.29832         0.19574
C         40.20524        58.48327         0.79450
C         38.93187        59.20249         0.60619
C         40.19726        61.32833         0.75405
C         38.95040        60.63925         0.69081
C         42.58610        35.89426        -0.54802
C         42.60128        37.24603        -0.28633
C         41.41072        38.02875        -0.28525
C         42.69262        40.10366         0.18194
C         41.42112        39.41266        -0.05316
C         42.68716        41.55330         0.33824
C         41.46816        42.26545         0.31224
C         42.69575        44.40151         0.57494
C         41.45391        43.69197         0.46423
C         42.71074        45.83566         0.58330
C         41.48787        46.56303         0.46178
C         42.75163        48.64781         0.18221
C         41.50380        47.92934         0.16566
C         42.78490        50.04273        -0.05466
C         41.55661        50.74293        -0.39675
C         42.86645        52.87854        -0.67834
C         41.57418        52.11468        -0.57612
C         42.78040        54.30301        -0.14458
C         41.57636        54.90871         0.08218
C         42.74251        57.03896         0.78260
C         41.52823        56.41744         0.07969
C         42.70380        58.55083         0.63652
C         41.48556        59.22521         0.69536
C         42.67302        61.37821         0.66731
C         41.44364        60.66481         0.69239
C         45.14003        33.04724        -0.59139
C         43.92313        33.69028        -0.54770
C         45.15524        35.89188        -0.77368
C         43.83369        35.13075        -0.77023
C         45.15563        37.31743        -0.38913
C         43.88060        37.88621         0.21004
C         45.17900        40.04364         0.58777
C         43.86335        39.39240         0.24136
C         45.15816        41.54985         0.52896
C         43.91773        42.25461         0.50148
C         45.16520        44.38026         0.67199
C         43.92027        43.68204         0.57779
C         45.18819        45.80414         0.74634
C         43.94582        46.53427         0.62914
C         45.17677        48.68098         0.66415
C         43.95872        47.95091         0.50179
C         45.19179        50.05699         0.49616
C         44.00955        50.76116         0.10297
C         45.28178        52.88371        -0.05556
C         44.07071        52.16206        -0.14042
C         45.30793        54.35265        -0.43832
C         44.01939        55.06155        -0.07530
C         45.22367        57.18047         0.28886
C         44.02030        56.39598         0.28385
C         45.16002        58.57906         0.38015
C         43.92635        59.27418         0.52401
C         45.14725        61.44250         0.62809
C         43.90868        60.71666         0.58030
C         46.37236        33.74154        -0.68412
C         47.62075        35.88056        -0.56106
C         46.42364        35.14366        -0.65751
C         47.61970        37.29760        -0.46050
C         46.34186        37.99267        -0.32816
C         47.63345        40.13458         0.11114
C         46.32124        39.50205        -0.27961
C         47.63798        41.49256         0.47548
C         46.37462        42.22608         0.58689
C         47.61571        44.35603         0.85220
C         46.39147        43.65954         0.69949
C         47.64255        45.76651         0.88820
C         46.41856        46.48057         0.85596
C         47.64714        48.59180         0.35645
C         46.44758        47.97439         1.08352
C         47.71346        50.07320         0.57883
C         46.43641        50.83246         0.84187
C         47.72788        52.91754         0.31506
C         46.47463        52.23407         0.28485
C         47.74130        54.37883         0.24557
C         46.53104        55.07875         0.06722
C         47.70582        57.19410         0.44531
C         46.50267        56.48233         0.22501
C         47.62232        58.67771         0.74424
C         46.42086        59.35988         0.08661
C         47.61476        61.50487         0.69604
C         46.38857        60.81555         0.51354
C         48.81846        38.01569        -0.33108
C         50.07546        40.09390         0.20278
C         48.85385        39.41668        -0.01905
C         50.10382        41.46677         0.53419
C         48.86600        42.15646         0.69009
C         50.17694        44.31825         1.10825
C         48.85386        43.57816         1.05892
C         50.16076        45.77963         0.91187
C         48.92341        46.48642         0.86736
C         50.16743        48.59000         0.62340
C         48.93889        47.87593         0.66861
C         50.18494        50.02311         0.58801
C         48.91536        50.75150         0.58409
C         50.17499        52.91017         0.74419
C         48.90726        52.19554         0.53088
C         50.23047        54.36732         0.46006
C         48.94138        55.10385         0.43833
C         50.25856        57.25484         0.51719
C         48.93270        56.51050         0.49588
C         50.12665        58.68821         1.07056
C         48.93938        59.38346         0.37263
C         50.10649        61.53586         0.66672
C         48.88256        60.86958         0.65798
C         51.34814        42.18728         0.61109
C         52.62010        44.30736         0.66831
C         51.41172        43.56671         0.78514
C         52.63876        45.71192         0.69616
C         51.38497        46.45212         0.75527
C         52.64025        48.57877         0.57176
C         51.40141        47.87367         0.66397
C         52.63885        49.98011         0.53789
C         51.41937        50.69400         0.61126
C         52.76854        52.88027         0.78974
C         51.46314        52.15993         0.81999
C         52.77898        54.33358         1.01062
C         51.51546        55.07544         0.72535
C         52.67716        57.28422         1.26882
C         51.36376        56.48697         1.27175
C         52.62906        58.72259         0.85356
C         51.42404        59.41395         0.80987
C         52.54865        61.47776         0.20385
C         51.36363        60.82891         0.55705
C         53.85774        46.43767         0.61425
C         55.12099        48.56024         0.56268
C         53.89389        47.83976         0.57110
C         55.17466        49.96106         0.51112
C         53.90776        50.73566         0.22530
C         55.22744        52.76280         1.17920
C         53.92033        52.16184         0.72586
C         55.24479        54.29664         1.15765
C         53.95058        55.03178         1.16180
C         55.28827        57.31055         0.99088
C         53.98010        56.53227         1.27298
C         55.05642        58.64849         0.28700
C         53.83918        59.36454         0.42672
C         54.89756        61.37949        -0.50642
C         53.76350        60.75290         0.03975
C         56.38375        50.67444         0.44977
C         57.50727        52.81836         0.05549
C         56.41331        52.09455         0.50343
C         57.54003        54.24706         0.00135
C         56.45858        55.03774         0.64115
C         57.41157        57.10653        -0.31234
C         56.36580        56.48117         0.31575
C         57.37759        58.54272        -0.58425
C         56.15698        59.27037        -0.33803
C         57.18640        61.25428        -1.39028
C         56.07993        60.65079        -0.74636
C         58.53451        54.90550        -0.69107
C         59.66256        56.98303        -1.31453
C         58.56689        56.34149        -0.79857
C         59.80965        58.47505        -1.22042
C         58.47238        59.17365        -1.16146
C         59.43735        61.09509        -2.37511
C         58.37549        60.53731        -1.61889
C         60.72912        59.04081        -2.26315
C         60.55394        60.30946        -2.74775
O         40.18977        57.51565         1.95419
O         53.38886        57.03504         2.53883
O         34.87458        54.96339        -2.27518
O         44.46441        35.60156        -2.03805
O         50.75040        52.56457         2.06278
O         38.56976        50.30222        -2.34850
O         51.10604        54.78270        -0.66731
O         49.51801        43.87669         2.34417
O         56.25466        54.79184         2.09008
O         36.87808        54.25272         0.86252
O         45.50542        39.66998         1.97145
H         44.95801        40.22326         2.56821
O         42.70688        56.72977         2.19453
H         41.87206        57.11807         2.55684
O         46.54421        59.34384        -1.37227
H         45.80245        59.87192        -1.73637
O         43.96529        37.44991         1.61526
H         44.66470        38.01184         2.03655
O         30.31639        57.60842         1.40852
H         30.28776        58.26296         2.13803
O         55.85961        57.67368         2.27841
H         55.10680        57.76763         2.90714
O         47.33127        58.81808         2.15217
H         48.17933        58.70106         2.65129
O         46.67070        48.19257         2.49916
H         45.84152        47.99156         2.97963
O         43.07885        53.03810        -2.13627
H         43.95466        53.49759        -2.26273
O         49.90349        58.69325         2.49956
H         50.32905        57.88359         2.88605
O         37.88746        47.85421        -2.36458
H         38.35865        48.52971        -2.90913
O         60.46606        58.73699         0.08280
H         59.85420        58.41850         0.78118
O         50.73846        57.38358        -0.83511
H         50.73402        56.48469        -1.24305
O         46.03439        39.94734        -1.63894
H         46.70864        39.55690        -2.23345
O         46.37362        51.01645         2.30908
H         47.24114        51.37215         2.59942
O         33.02917        57.63989        -2.32292
H         33.41237        56.86405        -2.78985
O         36.59689        43.69206         0.11724
H         36.64963        43.76457        -0.85777
O         30.25462        57.85910        -2.24746
H         31.17702        58.05645        -2.54033
O         40.43543        53.54074        -2.16224
H         41.33007        53.32694        -2.53128
O         53.89283        50.88127        -1.24797
H         53.98508        49.98224        -1.62991
O         40.18589        53.53103         1.48018
H         40.02883        54.25008         2.12791
O         34.45604        52.54201         1.06516
H         33.77676        52.11978         1.63060
O         40.00687        46.00930         2.24092
H         40.05042        46.96622         2.45194
O         34.96938        52.45917        -2.55178
H         34.81868        53.30794        -3.03274
O         55.32311        52.38613         2.58722
H         55.94795        53.02580         3.00034
O         41.61383        56.80896        -1.32684
H         41.11211        56.15281        -1.85786
O         49.16757        59.27257        -1.04342
H         48.32692        59.49338        -1.50860
O         50.96306        56.29209         2.65271
H         51.80027        56.20743         3.17273
O         47.38739        48.38932        -1.07124
H         48.12929        48.78760        -1.57316
O         45.42128        54.38686        -1.91834
H         45.48785        55.32930        -2.18449
H         29.42288        56.61219        -0.81267
H         28.12149        58.68442        -0.05294
H         30.29146        62.26383         1.01343
H         28.16029        61.08322         0.52427
H         31.90059        52.40263        -0.50529
H         30.62536        54.54401        -0.89932
H         32.75310        62.33368         0.96600
H         34.41645        48.07558        -0.15530
H         33.22900        50.17620        -0.14812
H         35.24555        62.38483         0.91934
H         37.53912        44.41588         1.79287
H         35.59220        45.94338         0.10557
H         37.71840        62.42245         0.82920
H         39.26683        39.64056        -0.19306
H         38.04719        41.76071         0.15073
H         40.18477        62.42752         0.80062
H         41.62827        35.38861        -0.75172
H         40.45509        37.53570        -0.52221
H         42.65187        62.47734         0.71321
H         45.16933        31.95367        -0.47773
H         43.00743        33.12982        -0.30943
H         45.10601        62.52343         0.83574
H         47.31076        33.16842        -0.67069
H         48.58279        35.34598        -0.54163
H         47.57456        62.58718         0.90287
H         49.77249        37.47048        -0.39277
H         51.02253        39.54463         0.09551
H         50.13275        62.63714         0.69068
H         52.27825        41.63204         0.41571
H         53.56598        43.76172         0.53052
H         52.53819        62.55254        -0.03177
H         54.80508        45.87783         0.59717
H         56.06153        47.99504         0.65325
H         54.84755        62.44061        -0.79176
H         57.32902        50.12456         0.31406
H         58.34809        52.27492        -0.40363
H         57.10435        62.29503        -1.73753
H         59.35031        54.32666        -1.14951
H         60.53070        56.39190        -1.64483
H         59.34590        62.12475        -2.74933
H         61.60616        58.44728        -2.56053
H         61.28880        60.73401        -3.44776
