         404
 CSIRO Nanostructure Databank - Neutral Graphene Oxide Data Set
C          1.66644         1.89629         1.70096
C          1.71269         3.25579         2.01462
C          2.75601         1.26560         1.10746
C          2.85605         4.03638         1.72415
C          1.85297         6.13828         2.72001
C          1.90041         7.45873         3.03632
C          2.93551         5.44147         2.05469
C          3.10021         8.27334         2.78433
C          1.94527        10.46427         3.20691
C          1.98357        11.85302         3.36112
C          3.06438         9.75821         2.77252
C          3.16710        12.58281         3.12947
C          2.14158        14.77466         3.80837
C          2.22837        16.17723         3.98690
C          3.24043        13.99506         3.47081
C          3.42308        16.87217         3.85001
C          3.48413        18.30820         3.79541
C          3.92966         1.99811         0.80660
C          3.97788         3.40406         1.10064
C          5.05774         1.35311         0.24100
C          5.15184         4.14874         0.78178
C          4.07151         6.16759         1.66939
C          4.22251         7.58863         2.04870
C          5.17449         5.55037         1.01917
C          5.09593         8.43999         1.15385
C          4.24706        10.48399         2.37796
C          4.31176        11.90853         2.61202
C          5.29986         9.82740         1.71416
C          5.54129        12.63016         2.36198
C          4.57807        14.59171         3.52315
C          4.68295        16.12900         3.74446
C          5.69374        13.92423         2.85337
C          5.88975        16.82390         3.27172
C          4.66008        18.96286         3.56535
C          5.88452        18.25093         3.26729
C          6.24741         2.05293        -0.02409
C          6.30394         3.47390         0.23468
C          7.40968         1.38595        -0.48594
C          7.50397         4.16733         0.01825
C          6.35618         6.33097         0.71835
C          6.38243         7.72293         0.78568
C          7.58150         5.58909         0.39720
C          7.49581         8.48191         0.26133
C          6.36682        10.62980         1.09852
C          6.64167        11.98380         1.65063
C          7.38290         9.97440         0.20867
C          7.87803        12.56868         1.51308
C          6.99354        14.61849         2.81684
C          7.03589        16.10259         2.88334
C          8.14560        13.90189         2.10692
C          8.20908        16.79625         2.49103
C          7.07160        18.93068         2.98624
C          8.24163        18.22775         2.60627
C          8.61304         2.07556        -0.71340
C          8.65946         3.50555        -0.49808
C          9.78476         1.39476        -1.13728
C          9.83555         4.22284        -0.83862
C          8.79234         6.39793        -0.07440
C          8.61846         7.84677        -0.23505
C          9.86704         5.66077        -0.78577
C          9.63059         8.55215        -1.10927
C          8.57125        10.87013        -0.22418
C          9.04848        11.77044         0.93429
C          9.73606        10.07194        -0.87695
C         10.23950        12.62890         0.50035
C          9.26401        14.72177         1.61268
C          9.33465        16.10913         1.88795
C         10.41159        14.01530         1.02401
C         10.43741        16.90203         1.43083
C          9.42355        18.94185         2.29101
C         10.51786        18.29472         1.69291
C         10.99115         2.07786        -1.36883
C         11.01505         3.52313        -1.25790
C         12.18242         1.39210        -1.71476
C         12.20734         4.22253        -1.51976
C         10.97814         6.36011        -1.21668
C         10.98157         7.83253        -1.01029
C         12.21072         5.66892        -1.52755
C         12.25182         8.55749        -1.29102
C         11.06589        10.75508        -0.93753
C         11.21217        12.08350        -0.28053
C         12.28693        10.02009        -1.35813
C         12.49342        12.78864        -0.53513
C         11.55943        14.86139         0.47274
C         11.43200        16.34513         0.50620
C         12.52941        14.25856        -0.44482
C         12.61513        17.19253         0.00004
C         11.72887        19.01789         1.39247
C         12.80117        18.52436         0.66906
C         13.39982         2.07360        -1.91109
C         13.42751         3.52126        -1.82076
C         14.61341         1.38397        -2.13040
C         14.63510         4.20842        -1.99740
C         13.38485         6.35755        -1.80626
C         13.34547         7.81488        -1.97640
C         14.72147         5.68260        -1.72270
C         14.55184         8.55813        -2.45963
C         13.45027        10.67388        -1.70902
C         13.56659        12.09336        -1.30600
C         14.63531        10.00678        -2.18389
C         14.58300        12.91886        -1.99471
C         13.64052        14.98813        -0.87820
C         13.73246        16.41808        -0.61564
C         14.69888        14.32560        -1.61077
C         14.88003        17.04147        -1.05513
C         14.02803        19.31652         0.73196
C         15.12006        19.23475        -0.10528
C         15.84605         2.06272        -2.24120
C         15.86095         3.52093        -2.23062
C         17.05960         1.34832        -2.23840
C         17.05741         4.24018        -2.41231
C         15.87712         6.36935        -2.42098
C         15.80813         7.79256        -2.76607
C         17.08340         5.68448        -2.53637
C         17.11241         8.56619        -2.92271
C         15.84751        10.69214        -2.41073
C         15.82363        12.17172        -2.47265
C         17.07290        10.02735        -2.67853
C         17.08535        12.91317        -2.54550
C         15.90047        14.96838        -1.93745
C         16.01671        16.33178        -1.54495
C         17.08575        14.29891        -2.39114
C         17.28065        16.92018        -1.37011
C         16.39569        19.93564        -0.15235
C         17.48376        19.16176        -0.61179
C         18.30294         2.02447        -2.17017
C         18.31246         3.48303        -2.48263
C         19.49417         1.36009        -1.93244
C         19.58907         4.26808        -2.37438
C         18.35471         6.42159        -2.66702
C         18.39693         7.83980        -2.79033
C         19.57570         5.74903        -2.43375
C         19.62904         8.55742        -2.87896
C         18.29176        10.74686        -2.81565
C         18.29292        12.17571        -2.76791
C         19.52362        10.02335        -3.08659
C         19.50442        12.92181        -2.92357
C         18.31371        15.13414        -2.72495
C         18.45828        16.41789        -1.92828
C         19.58627        14.32587        -2.71101
C         19.68372        17.13020        -1.90321
C         18.73392        19.47162        -1.17846
C         19.76445        18.56108        -1.59765
C         20.69038         2.09390        -1.50493
C         20.71855         3.61040        -1.65482
C         21.97349         1.44060        -1.31343
C         21.98920         4.35333        -1.55927
C         20.80443         6.45149        -2.31352
C         20.86512         7.85208        -2.63952
C         21.97616         5.73089        -1.82924
C         22.20242         8.47731        -2.63039
C         20.56705        10.80864        -3.57483
C         20.64620        12.23085        -3.39922
C         22.49218         9.69291        -3.27945
C         21.84202        12.98071        -3.54231
C         20.83161        14.98012        -2.62810
C         20.87933        16.41506        -2.30585
C         22.02413        14.24440        -2.97014
C         22.10745        17.07457        -2.36494
C         21.01758        19.18909        -1.81758
C         22.18540        18.49014        -2.13628
C         23.13314         2.17577        -1.04831
C         23.15853         3.63094        -1.14457
C         24.32944         1.49073        -0.71033
C         24.39468         4.29410        -0.97711
C         23.15289         6.51253        -1.42686
C         23.31048         7.86348        -1.96419
C         24.42841         5.75950        -0.98654
C         24.57816         8.49772        -1.84752
C         23.65803        10.45787        -2.99540
C         23.79479        11.82558        -3.34626
C         24.71108         9.84979        -2.26001
C         24.81389        12.65045        -2.82373
C         23.38230        14.81056        -2.66930
C         23.37088        16.30244        -2.41966
C         24.72979        14.10366        -2.80404
C         24.63858        17.06679        -2.60141
C         23.44680        19.17759        -2.13650
C         24.65312        18.52026        -2.29185
C         25.55227         2.16565        -0.53501
C         25.60538         3.59240        -0.74761
C         26.71438         1.49480        -0.10391
C         26.86049         4.27481        -0.68732
C         25.72930         6.42978        -1.11096
C         25.76761         7.80644        -1.40525
C         26.92488         5.68714        -0.91672
C         27.03621         8.48250        -1.42299
C         25.93607        10.56223        -2.11551
C         25.97433        11.97541        -2.35102
C         27.09928         9.85506        -1.74782
C         27.18021        12.70830        -2.10242
C         25.89720        14.80611        -2.49957
C         25.91200        16.29675        -2.55862
C         27.15537        14.13615        -2.21830
C         27.09364        17.01161        -1.93716
C         25.91062        19.19204        -2.23694
C         27.12299        18.50765        -2.15956
C         27.96521         2.15738        -0.02240
C         28.06532         3.55138        -0.43679
C         29.06929         1.52169         0.54879
C         29.31504         4.21787        -0.45577
C         28.18791         6.36412        -0.87537
C         28.23623         7.76363        -1.10534
C         29.38743         5.62835        -0.60585
C         29.48953         8.46693        -0.97977
C         28.42170        10.52515        -1.96241
C         28.37706        12.02503        -1.80933
C         29.55008         9.85910        -1.23194
C         29.58379        12.73576        -1.59209
C         28.37417        14.83599        -2.05737
C         28.38723        16.30208        -2.26884
C         29.59058        14.16894        -1.73973
C         29.65662        17.06742        -2.08200
C         28.35594        19.19112        -2.00907
C         29.58626        18.53032        -1.84638
C         30.40788         2.06156         0.36184
C         30.55718         3.43527        -0.29093
C         31.50183         1.59198         1.20517
C         31.91684         4.13697        -0.27055
C         30.64070         6.32893        -0.42556
C         30.66258         7.76191        -0.57215
C         31.82529         5.63908        -0.09237
C         31.87927         8.48370        -0.39769
C         30.73841        10.58788        -1.01718
C         30.77223        12.03400        -1.21355
C         31.89877         9.88496        -0.61533
C         31.94419        12.77474        -0.91337
C         30.81254        14.89721        -1.53051
C         30.85922        16.33077        -1.65456
C         31.97235        14.19969        -1.07060
C         32.00331        17.06164        -1.35289
C         30.77718        19.20192        -1.51688
C         31.98610        18.50769        -1.28146
C         32.71556         2.25833         1.32931
C         32.95709         3.49833         0.64354
C         33.63657         1.71559         2.34074
C         34.18936         4.22134         0.74695
C         33.02834         6.35136         0.18959
C         33.06381         7.77474         0.04110
C         34.22213         5.66423         0.57398
C         34.25203         8.46820         0.33990
C         33.15088        10.63905        -0.46710
C         33.11209        12.11818        -0.41721
C         34.33917         9.91055         0.06275
C         34.23049        12.84188        -0.00611
C         33.17856        14.90163        -0.77561
C         33.24953        16.33676        -1.07014
C         34.29252        14.25469        -0.20139
C         34.44014        17.12074        -0.52057
C         33.13254        19.21575        -0.82017
C         34.29497        18.58685        -0.36338
C         34.99161         1.72478         2.18928
C         35.41392         3.57307         0.97942
C         35.98893         1.42065         3.19250
C         36.63696         4.26749         1.25320
C         35.41754         6.38738         0.86145
C         35.42061         7.81340         0.79922
C         36.63725         5.71866         1.22252
C         36.60025         8.56263         1.17985
C         35.35171        10.68190         0.83106
C         35.31436        12.17506         0.75571
C         36.59532         9.98580         1.19421
C         36.55467        12.90718         1.06784
C         35.42391        15.00674         0.32403
C         35.42273        16.39168         0.27879
C         36.54898        14.30987         0.94734
C         36.36205        17.18083         1.14912
C         35.38965        19.29537         0.17962
C         36.49493        18.63479         0.74541
C         37.31678         1.73836         3.01779
C         37.74611         3.56404         1.71484
C         38.36620         1.69571         4.00239
C         38.98295         4.21262         2.15438
C         37.79041         6.44689         1.56886
C         37.76728         7.87536         1.61448
C         39.03609         5.75467         1.95495
C         38.90551         8.62216         2.08280
C         37.71203        10.74532         1.59700
C         37.69126        12.19376         1.54077
C         38.88569        10.05236         2.05264
C         38.86209        12.92998         1.91475
C         37.69677        15.05413         1.36875
C         37.67681        16.47292         1.36072
C         38.86544        14.35986         1.82847
C         38.81779        17.21726         1.71333
C         37.65479        19.32606         1.11191
C         38.79833        18.65955         1.62076
C         39.51061         2.45966         3.98056
C         39.84335         3.62397         3.19408
C         40.93651         4.39101         3.61068
C         40.07765         6.49781         2.67643
C         40.04289         7.94315         2.62695
C         41.07115         5.76674         3.32810
C         41.12927         8.71165         3.09957
C         40.01995        10.79763         2.49208
C         40.01725        12.24411         2.39741
C         41.12789        10.09371         3.01579
C         41.14752        13.00769         2.76861
C         40.01977        15.10066         2.21747
C         40.01781        16.54853         2.13324
C         41.15054        14.38878         2.68114
C         41.13961        17.32505         2.47002
C         39.96044        19.38697         1.97022
C         41.10556        18.72450         2.39248
O         16.33446         8.12633        -4.09437
O         13.45257         8.22380        -3.39573
O         37.73677         2.17522         1.73753
O         11.89191         8.15455         0.09437
O         15.00288        18.40835        -1.22590
O         11.64469        14.25233         1.81191
O         10.11928        10.76098        -2.10921
O         23.52146         6.37895        -0.01403
O         19.18645         3.70902        -3.66843
O          8.04255        13.93560         3.58219
O         14.77417        12.65030        -3.40575
O         22.89578        12.38323        -4.24435
O         34.25951        10.19911        -1.37471
O         30.66726         2.23524        -1.11429
O         29.13729        16.72249        -3.43765
O         13.67181        12.18156         0.16352
O         39.63081         4.82907         0.98991
O         21.62549        10.18403        -4.25085
O         35.46908         2.18505         0.93187
O         17.29178        17.81370        -0.30794
O         25.40366        16.79084        -3.83374
O         11.38991        17.02842        -0.79132
O         20.33372         3.03656        -0.37672
O          4.33229         7.79810         3.47801
O         23.39619        15.35939        -1.28630
O         34.76756        11.45213         1.94186
O          8.68481         5.91888         1.30667
O          4.93057        15.17666         4.81904
O          6.17042        10.51267        -0.41350
O         34.38318        16.70703        -1.92966
O          4.31822         8.59324        -0.07824
H          4.79770         9.26699        -0.62280
O         26.90640        16.82339        -0.49716
H         27.49539        17.44835        -0.02461
O         18.12571        15.56495        -4.12267
H         17.90004        14.76934        -4.65036
O         15.08378         5.79938        -0.27578
H         14.37571         5.35536         0.24012
O         28.71911        10.30634        -3.40282
H         29.60253        10.69615        -3.57932
O          9.51617        10.89835         1.98659
H          9.84626        11.44677         2.72990
O         32.47619         3.97803        -1.61714
H         32.18755         3.08898        -1.93154
O          9.18172         8.36508        -2.47601
H          9.56379         9.10659        -3.00314
O         35.72251        17.22427         2.48397
H         36.34175        17.69099         3.08506
O          8.09254        11.81404        -1.18775
H          7.73444        11.32600        -1.95772
H          0.76105         1.31845         1.93369
H          0.83675         3.71476         2.49173
H          2.71668         0.19202         0.87415
H          0.93240         5.58380         2.94920
H          1.01055         7.93570         3.47192
H          1.02279         9.93054         3.47288
H          1.08973        12.36385         3.74220
H          1.13994        14.32385         3.83636
H          1.29725        16.74363         4.13466
H          2.55703        18.87619         3.96205
H          5.01178         0.27182         0.04253
H          4.68722        20.06198         3.55639
H          7.37161         0.29869        -0.65047
H          7.09417        20.02974         3.02187
H          9.74867         0.30283        -1.26805
H          9.44998        20.03068         2.44339
H         12.16356         0.29448        -1.79056
H         11.82040        20.02147         1.83588
H         14.60836         0.28370        -2.14603
H         14.06084        20.06297         1.54033
H         17.03920         0.25223        -2.14612
H         16.48423        21.00733         0.07469
H         19.50763         0.26126        -1.87775
H         18.98832        20.53987        -1.26453
H         22.02934         0.34415        -1.37672
H         21.09686        20.27125        -1.63296
H         24.29491         0.39990        -0.57429
H         23.44354        20.25969        -1.93602
H         26.65709         0.42817         0.15745
H         25.91510        20.29289        -2.21536
H         28.94724         0.55554         1.05998
H         28.34181        20.29178        -1.98109
H         31.31015         0.71519         1.84127
H         30.75733        20.29427        -1.38509
H         33.19171         1.25351         3.23445
H         33.05871        20.31056        -0.73088
H         35.64541         1.06213         4.17283
H         35.39167        20.39552         0.12797
H         38.23840         0.99705         4.84323
H         37.71445        20.40994         0.92829
H         40.23314         2.25423         4.78779
H         41.65116         3.94261         4.31750
H         41.91789         6.29075         3.79197
H         42.01293         8.21170         3.51774
H         42.01079        10.63673         3.37652
H         42.05488        12.50990         3.13453
H         42.05674        14.92956         2.98422
H         42.07017        16.84372         2.79885
H         39.94908        20.48385         1.89757
H         42.00214        19.30003         2.66183
