         486
 CSIRO Nanostructure Databank - Neutral Graphene Oxide Data Set
C         37.46206        50.04356        -0.65050
C         36.26938        50.74349        -0.75524
C         37.48658        52.82883        -0.71763
C         36.28146        52.14623        -0.78477
C         39.96275        48.57823        -0.27555
C         39.95785        49.98853        -0.44070
C         38.70425        50.71692        -0.57363
C         39.98635        52.84701        -0.57224
C         38.71728        52.13754        -0.61490
C         40.03481        54.25974        -0.58362
C         42.39095        48.54183        -0.11482
C         41.13927        47.87769        -0.12181
C         42.42118        49.95443        -0.26882
C         41.19262        50.67815        -0.44270
C         42.44617        52.82110        -0.57266
C         41.21176        52.12332        -0.54023
C         42.46544        54.22512        -0.59352
C         41.24138        54.93285        -0.57534
C         44.85587        45.70943        -0.14992
C         43.65776        46.40049        -0.12823
C         44.85706        48.51055         0.18515
C         43.63225        47.80902        -0.00069
C         44.86254        49.95952         0.09559
C         43.67822        50.63875        -0.22470
C         44.95238        52.82873        -0.25010
C         43.74092        52.06115        -0.73500
C         44.93621        54.20119        -0.20223
C         43.73935        54.94504        -0.55187
C         45.07318        57.00213        -0.66973
C         43.83460        56.29084        -0.82206
C         47.40539        44.16915         0.14766
C         47.39363        45.65428        -0.16694
C         46.07766        46.37736         0.06814
C         47.32502        48.47118         0.64410
C         46.06845        47.76416         0.28892
C         47.33182        49.99027         0.60831
C         46.10621        50.69841         0.20800
C         47.43312        52.78244         0.12781
C         46.17068        52.08212         0.03103
C         47.44743        54.25368        -0.24154
C         46.16526        54.95832         0.26079
C         47.40437        57.18062         0.25486
C         46.18444        56.39807        -0.17370
C         47.73134        58.33589        -0.66186
C         49.85967        44.22128         0.12678
C         48.57795        43.52045         0.28486
C         49.84114        45.59583         0.18694
C         48.56043        46.29050         0.59144
C         49.81038        48.49731         0.49874
C         48.61373        47.78909         0.48096
C         49.81141        49.94373         0.59101
C         48.63560        50.67323         0.51235
C         49.89900        52.82827         0.40308
C         48.62797        52.11050         0.34837
C         49.91743        54.24391         0.40927
C         48.68087        54.99339         0.23967
C         49.84342        57.11131         0.96911
C         48.64881        56.33763         0.44804
C         49.97507        58.45163         0.27456
C         48.97146        58.92049        -0.60410
C         52.38489        41.42793         0.30604
C         51.17526        42.08954         0.18730
C         52.34878        44.19760        -0.11567
C         51.12154        43.49431         0.02169
C         52.33703        45.64598        -0.38658
C         51.00980        46.40512        -0.16361
C         52.28400        48.51887         0.10001
C         51.06556        47.82389         0.19825
C         52.34740        49.92646         0.39106
C         51.11332        50.63939         0.89052
C         52.33091        52.80465         0.64182
C         51.10794        52.11132         0.55080
C         52.34984        54.20194         0.73162
C         51.13939        54.93949         0.64245
C         52.39420        57.04177         0.92267
C         51.15451        56.36303         0.83781
C         52.42987        58.51995         0.99417
C         51.13926        59.27235         0.60383
C         52.50299        61.29104         0.25441
C         51.31075        60.64252         0.11661
C         54.95970        40.19877         1.10599
C         54.86933        41.45097         0.50545
C         53.61452        42.12708         0.26309
C         54.83473        44.26824        -0.19058
C         53.59161        43.53204         0.01197
C         54.82074        45.70584        -0.32643
C         53.57097        46.42071        -0.28402
C         54.74256        48.58623        -0.26866
C         53.52666        47.82234        -0.17015
C         54.74525        49.95533        -0.08826
C         53.54434        50.61996         0.32992
C         54.84621        52.79847         0.46916
C         53.60923        52.02744         0.87622
C         54.85877        54.18016         0.70421
C         53.61748        54.87272         1.20580
C         54.87698        57.05040         0.94604
C         53.62338        56.35589         0.94718
C         54.91360        58.49208         0.91523
C         53.71035        59.22798         0.84935
C         54.96698        61.34667         0.74489
C         53.71267        60.62938         0.66018
C         55.00248        62.76111         0.73721
C         57.41192        40.11442         0.94347
C         56.19949        39.59254         1.42765
C         57.33032        41.28045         0.11535
C         56.15680        42.21913         0.36449
C         57.21561        44.32931        -0.64272
C         56.04266        43.56999        -0.33338
C         57.25109        45.74304        -0.51052
C         56.01639        46.43164        -0.42586
C         57.27438        48.62078        -0.34572
C         56.00023        47.90159        -0.74168
C         57.27220        49.99331        -0.31731
C         55.96604        50.74236        -0.51194
C         57.23036        52.87398        -0.09139
C         56.01861        52.14815         0.03639
C         57.24267        54.26181         0.15391
C         56.05992        54.91829         0.58079
C         57.40357        56.96961         1.18940
C         56.08367        56.32511         0.86661
C         57.36843        58.46848         1.08006
C         56.18215        59.18067         0.93915
C         57.41829        61.34895         1.02159
C         56.18434        60.63125         0.89844
C         57.41282        62.77363         1.04569
C         56.19759        63.45237         0.91187
C         60.15252        37.80078         2.15918
C         58.88161        38.37517         1.94270
C         59.89953        40.10559         0.55198
C         58.71834        39.49881         1.13268
C         59.77107        41.18528        -0.33272
C         58.44772        41.60328        -0.63507
C         59.66846        44.30304        -0.98196
C         58.41460        43.73206        -1.09782
C         59.71749        45.71140        -0.69508
C         58.51152        46.40990        -0.51451
C         59.80126        48.55625        -0.49284
C         58.54642        47.84075        -0.06060
C         59.77895        50.01701        -0.32639
C         58.49848        50.75034        -0.30232
C         59.66673        52.89982        -0.63919
C         58.48681        52.16557        -0.35651
C         59.69402        54.36606        -0.73036
C         58.41116        55.09480        -0.19671
C         59.78375        57.11537         0.27290
C         58.56248        56.41019         0.38713
C         59.86228        58.47812         0.68758
C         58.67342        59.15660         1.34136
C         59.89043        61.32686         1.10513
C         58.64763        60.63903         1.11368
C         59.93670        62.73724         1.17018
C         58.67141        63.51291         1.43694
C         59.98970        65.55673         0.95142
C         58.77444        64.93425         0.95892
C         62.76885        36.60957         2.80914
C         62.62369        37.60231         1.67989
C         61.31177        38.36820         1.65947
C         62.35105        40.20829         0.37240
C         61.21604        39.57327         0.86076
C         62.30577        41.27230        -0.71040
C         60.93997        41.95210        -0.87774
C         62.15856        44.25297        -1.21512
C         60.89161        43.47687        -1.17369
C         62.10950        45.68768        -1.24669
C         60.97210        46.41853        -0.89049
C         62.17080        48.63588        -1.21126
C         60.96457        47.88610        -0.83647
C         62.18705        50.00752        -1.27487
C         61.02861        50.76783        -0.77306
C         62.19626        53.00301        -1.31812
C         60.85356        52.20057        -1.10508
C         62.19457        54.38844        -0.85066
C         60.98374        55.08462        -0.61162
C         62.23499        57.16012        -0.12205
C         60.99520        56.45494        -0.19147
C         62.30056        58.49269         0.34560
C         61.08391        59.17560         0.68932
C         62.35639        61.25343         1.14168
C         61.11455        60.58071         0.99164
C         62.41136        62.67468         1.25601
C         61.18610        63.42148         1.19428
C         62.46862        65.61444         1.39972
C         61.20381        64.83857         1.16289
C         62.70150        66.63997         0.31124
C         65.21961        36.86800         2.79862
C         63.97176        36.23326         3.26765
C         65.09557        38.04793         1.91823
C         63.83270        38.49960         1.56442
C         64.87628        40.61755         0.59688
C         63.66171        39.80737         0.91870
C         64.74923        41.72476        -0.38236
C         63.49399        42.23332        -0.71520
C         64.62838        44.32333        -1.48625
C         63.39853        43.58110        -1.20842
C         64.57813        45.66538        -1.82048
C         63.26188        46.40913        -1.90884
C         64.57562        48.60562        -2.13751
C         63.45671        47.84797        -1.36545
C         64.64575        50.06732        -1.79305
C         63.34174        50.81432        -1.89933
C         64.65381        52.88273        -1.19249
C         63.43678        52.23474        -1.37097
C         64.65995        54.30218        -0.91987
C         63.47118        55.02025        -0.73825
C         64.83479        57.16589        -0.22764
C         63.47581        56.48998        -0.55625
C         64.80073        58.45315         0.48014
C         63.55711        59.14507         0.65044
C         64.78777        61.06585         1.68605
C         63.54457        60.46149         1.16962
C         64.92020        62.60115         1.60251
C         63.66971        63.38143         1.35385
C         64.98742        65.52450         1.73103
C         63.71287        64.75457         1.45630
C         65.05425        66.83042         0.95375
C         63.92501        67.23546         0.18498
C         67.70628        33.94330         2.90124
C         66.60460        34.69306         3.17973
C         67.60271        36.58858         1.87271
C         66.55129        36.09945         2.77911
C         67.47486        37.88291         1.30215
C         66.30109        38.64555         1.39500
C         67.34685        40.51163        -0.00420
C         66.27187        40.11567         0.98705
C         67.20335        41.58919        -0.82128
C         65.94248        42.33218        -0.88444
C         67.12520        44.22771        -1.89053
C         65.88881        43.60116        -1.45643
C         67.10960        45.66357        -2.26636
C         65.80126        46.41017        -2.19984
C         67.09085        48.53827        -1.87126
C         65.87503        47.86433        -1.98668
C         67.08898        49.96428        -1.75506
C         65.87100        50.72591        -1.73031
C         67.11891        52.84389        -1.41460
C         65.91763        52.17175        -1.45970
C         67.18028        54.15408        -0.65477
C         65.97538        55.05516        -0.97676
C         67.27712        56.78880         0.46860
C         65.98033        56.28469        -0.09654
C         67.27848        58.26876         0.77974
C         66.00476        58.93597         1.04902
C         67.46044        61.29508         0.48976
C         65.91871        60.12080         1.83482
C         67.42540        62.64667         1.11809
C         66.22122        63.31735         1.39353
C         67.47805        65.42261         1.44852
C         66.25599        64.72622         1.51470
C         67.46704        66.90524         1.51632
C         66.24129        67.58512         1.03931
C         67.54793        69.63026         0.60056
C         66.33137        68.93394         0.64203
C         70.23144        32.48806         2.86781
C         70.11525        33.74643         2.22886
C         68.86157        34.49296         2.24560
C         69.94130        36.38960         1.05520
C         68.77643        35.79177         1.67861
C         69.90142        37.68754         0.58514
C         68.54936        38.32074         0.33022
C         69.75557        40.18206        -0.76194
C         68.67739        39.84839         0.24419
C         69.62387        41.37495        -1.64998
C         68.25437        42.02812        -1.83164
C         69.51165        44.19593        -2.54085
C         68.29917        43.52935        -1.94431
C         69.58756        45.62123        -2.00976
C         68.35413        46.41694        -2.07098
C         69.63109        48.48883        -1.84403
C         68.36982        47.80131        -1.91039
C         69.63889        49.94975        -1.46698
C         68.37203        50.66963        -1.88716
C         69.68432        52.89715        -1.68207
C         68.37118        52.17332        -1.80189
C         69.70901        54.33051        -1.18666
C         68.45956        54.94567        -0.76066
C         69.76165        56.99171        -0.02515
C         68.44308        56.41996        -0.50334
C         69.75707        58.25006         0.53445
C         68.48412        58.93468         0.76928
C         69.85566        61.10025         1.20544
C         68.53867        60.39734         1.01189
C         69.90553        62.57602         1.07510
C         68.67983        63.31978         1.17347
C         69.97884        65.42583         1.21685
C         68.71124        64.73404         1.32245
C         70.02915        66.84696         1.18824
C         68.79318        67.63735         1.37046
C         70.04438        69.71534         0.73272
C         68.77738        69.03005         0.88076
C         70.10061        71.11559         0.52967
C         72.55372        32.31345         2.22562
C         71.43104        31.78531         2.86988
C         72.46299        33.55493         1.59588
C         71.26955        34.28928         1.60797
C         72.42320        36.45396         0.96737
C         71.20016        35.58207         0.82500
C         72.37474        37.75420         0.61743
C         71.12221        38.38512         0.22317
C         72.22883        40.29783        -0.96234
C         71.08860        39.62428        -0.42008
C         72.12120        41.45710        -1.68834
C         70.86938        42.12364        -1.96782
C         72.01567        44.22572        -2.65203
C         70.82374        43.45702        -2.33748
C         72.04909        45.58150        -2.60566
C         70.90817        46.34928        -2.06548
C         72.05167        48.57372        -2.19987
C         70.85914        47.82838        -2.04899
C         72.06292        49.96856        -2.11471
C         70.91131        50.69604        -1.80982
C         72.12901        52.81870        -1.40646
C         70.94644        52.12128        -1.62553
C         72.15251        54.19986        -1.06470
C         71.01019        54.93165        -0.84340
C         72.24000        56.91337         0.16767
C         71.04160        56.42951        -0.59846
C         72.22471        58.12155         0.76488
C         71.02258        58.93798         0.80852
C         72.32122        61.05250         1.07775
C         71.09212        60.30718         1.05813
C         72.34392        62.42132         1.08312
C         71.14004        63.22357         1.06626
C         72.39292        65.37534         0.85567
C         71.18001        64.67358         1.05081
C         72.42154        66.75536         0.78821
C         71.24240        67.52460         0.94481
C         72.48581        69.68829         0.75373
C         71.26664        68.98465         0.82805
C         72.51508        71.06717         0.57172
C         71.31542        71.78197         0.44972
O         69.70314        53.97585        -2.66350
O         58.27966        42.48144        -1.69990
O         68.36781        51.47544        -3.10335
O         64.21872        57.22046        -1.58866
O         66.37856        45.96861        -3.50666
O         60.80280        42.45778        -2.23849
O         60.77285        50.52638         0.65274
O         51.50512        46.07864        -1.50923
O         64.12874        40.94564         1.83288
O         64.74764        61.91041         2.90351
O         61.27481        52.65997        -2.40411
O         69.50723        39.99138        -2.19999
O         58.73579        54.98987        -1.62870
O         51.56800        59.09912         2.02372
O         47.19726        49.25321         1.88612
O         66.80453        61.06459        -0.52599
O         68.13631        67.46203         2.68640
O         70.38020        45.77439        -0.79987
O         66.20342        37.04506         3.86239
O         68.99346        60.73504         2.36545
O         51.23620        50.60130         2.37646
H         50.41075        50.98427         2.74638
O         62.86246        46.41404        -3.29971
H         63.56354        46.86867        -3.82341
O         63.95443        47.65646        -0.01535
H         63.91390        48.51286         0.45996
O         66.62822        40.82337         2.22327
H         65.78114        40.94618         2.71976
O         68.09712        37.83588        -0.96684
H         68.70733        38.18814        -1.65357
O         66.67238        60.28503         2.91106
H         66.34954        61.09546         3.38403
O         63.01952        50.93296        -3.31723
H         63.17586        50.04506        -3.72275
O         53.71481        51.89261         2.34133
H         52.90810        51.38659         2.62702
O         69.56410        49.97692         0.00933
H         70.24823        49.36271         0.35209
O         48.32242        46.01684         2.00610
H         48.81292        46.67831         2.53738
O         55.80586        50.88804        -1.97467
H         56.53193        51.46624        -2.29517
O         58.93770        58.99665         2.79213
H         58.67654        58.06408         3.01497
O         47.45106        54.31916        -1.69469
H         46.62162        53.90173        -2.01278
O         47.67356        45.81544        -1.58396
H         46.99431        45.32242        -2.08879
O         67.07078        53.70950         0.73759
H         67.29740        54.48059         1.32329
O         55.98190        47.98953        -2.21176
H         55.83833        48.94352        -2.43183
O         71.15407        35.18138        -0.59269
H         70.30356        34.71529        -0.73750
O         58.58592        63.62413         2.91668
H         59.39477        64.09452         3.21489
O         71.11425        57.01975        -1.94338
H         70.19967        56.99143        -2.31573
O         69.19318        40.33963         1.50588
H         68.42542        40.52059         2.10246
O         62.51058        40.50629        -1.94629
H         62.12196        41.04960        -2.67209
O         46.18680        54.95070         1.71495
H         46.33800        55.87680         2.02000
O         67.76997        41.60640        -3.14607
H         68.02576        40.65884        -3.24262
O         53.63227        54.70374         2.67016
H         53.68310        53.72419         2.82827
O         64.95491        65.90252         3.15063
H         64.92861        65.07636         3.67870
O         47.04198        57.73402         1.56829
H         47.88461        57.81580         2.09174
O         68.19342        57.09102        -1.78267
H         67.47533        56.57521        -2.24827
O         58.62610        47.77443         1.41436
H         58.87646        48.66729         1.73657
O         49.58089        57.35254         2.40376
H         50.29905        57.96619         2.70793
O         69.28466        44.29335        -3.97597
H         68.80838        43.48141        -4.25733
O         66.13801        55.46527        -2.38269
H         65.38530        56.08290        -2.56829
O         67.61162        56.12265         1.74791
H         66.99299        56.45932         2.43024
O         57.67641        56.61187         2.62461
H         56.82296        56.67877         3.10655
O         62.29084        66.30282         2.67789
H         63.19037        66.53696         3.01435
O         43.92001        51.91447        -2.19829
H         44.65983        51.28616        -2.34028
O         62.61560        36.81428         0.43216
H         61.73585        36.38855         0.35256
O         64.27031        48.55618        -3.59272
H         65.08563        48.83696        -4.06331
O         56.45364        42.69397         1.75019
H         56.36935        41.91607         2.34436
H         37.42416        48.94637        -0.63520
H         35.31655        50.19962        -0.81580
H         37.46923        53.92608        -0.75237
H         35.33791        52.70329        -0.86688
H         39.01741        48.02120        -0.25232
H         39.10775        54.84739        -0.58691
H         41.08956        46.79018         0.01995
H         41.24037        56.03101        -0.55754
H         44.84292        44.62533        -0.32890
H         42.72566        45.84191        -0.28310
H         45.07849        58.07565        -0.90793
H         42.95401        56.86071        -1.14758
H         46.46204        43.60791         0.21781
H         46.94891        58.78309        -1.29035
H         48.57476        42.43758         0.47337
H         49.16403        59.82821        -1.19754
H         52.38352        40.33813         0.44482
H         50.24846        41.50448         0.24870
H         52.56053        62.34082        -0.06479
H         50.45518        61.16230        -0.33589
H         54.04330        39.65567         1.37860
H         54.07117        63.33576         0.65093
H         56.18480        38.64657         1.98633
H         56.16613        64.54885         0.96645
H         60.19396        36.87172         2.74418
H         58.00842        37.89824         2.40800
H         60.04586        66.64167         0.77853
H         57.86204        65.52974         0.81646
H         61.87196        36.11315         3.20694
H         61.88517        66.91128        -0.37401
H         64.04835        35.48790         4.07288
H         64.05219        68.04986        -0.54463
H         67.72119        32.89831         3.23733
H         65.76969        34.26116         3.74788
H         67.52049        70.67716         0.26770
H         65.41664        69.46292         0.34051
H         69.36830        32.04079         3.37734
H         69.17093        71.69600         0.45900
H         73.49910        31.75413         2.20973
H         71.49124        30.81037         3.37308
H         73.34179        33.95530         1.07164
H         73.37490        36.00436         1.28537
H         73.28472        38.37052         0.66093
H         73.22919        39.87476        -0.79199
H         73.04729        41.93310        -2.04085
H         72.92075        43.68699        -2.97148
H         72.95467        46.11492        -2.92698
H         72.99628        48.05067        -2.39824
H         73.00838        50.49546        -2.30392
H         73.08818        52.28294        -1.41570
H         73.13774        54.66140        -0.90910
H         73.16107        56.31355         0.17741
H         73.13155        58.49390         1.26366
H         73.27591        60.50872         1.04834
H         73.31935        62.92530         1.09299
H         73.33155        64.82280         0.71787
H         73.38236        67.25026         0.59599
H         73.43926        69.15184         0.85014
H         73.47812        71.59346         0.52257
H         71.33586        72.87078         0.30381
