         240
 CSIRO Nanostructure Databank - Neutral Graphene Oxide Data Set
C          1.34514         1.97763         0.88454
C          1.33072         3.30899         0.40450
C          2.53289         1.32087         1.11617
C          2.51309         4.00544         0.17266
C          1.34219         5.95405        -0.84897
C          1.41316         7.15151        -1.54617
C          2.52989         5.37687        -0.35763
C          2.61710         7.86372        -1.58910
C          1.42481        10.90073        -1.96586
C          1.37494        12.20141        -1.48955
C          2.60917        10.16242        -1.83515
C          2.55691        12.81512        -1.03197
C          1.31340        14.97342        -0.45989
C          1.28142        16.22760         0.03825
C          2.56289        14.23854        -0.68054
C          2.54930        16.91013         0.49327
C          2.51254        18.41923         0.47636
C          3.77670         1.99007         0.90388
C          3.76008         3.35815         0.45622
C          5.00260         1.31983         1.06050
C          4.97890         4.04678         0.29531
C          3.73671         6.11265        -0.43313
C          3.78571         7.45713        -0.90519
C          5.04738         5.39031        -0.37498
C          4.97618         8.30184        -0.64563
C          3.76729        10.65041        -1.20758
C          3.75268        12.04723        -0.94392
C          5.00374         9.79994        -0.96054
C          5.04138        12.75855        -0.86899
C          3.75094        14.92049        -0.56940
C          3.72367        16.37747        -0.29922
C          5.04581        14.28032        -0.84783
C          4.98001        17.17337        -0.35423
C          3.64567        19.15219         0.40543
C          4.95835        18.55023         0.20445
C          6.22586         1.99530         0.85946
C          6.19336         3.40181         0.55642
C          7.47489         1.33055         0.86697
C          7.40845         4.15800         0.50733
C          6.19578         6.25765         0.08340
C          6.10497         7.70067        -0.08671
C          7.35252         5.61013         0.46628
C          7.21093         8.46290         0.64935
C          6.22208        10.58115        -0.51183
C          6.23255        12.05961        -0.46115
C          7.29501         9.95441         0.32722
C          7.54349        12.79655        -0.62577
C          6.29180        14.98244        -0.46305
C          6.31831        16.49561        -0.63185
C          7.46372        14.28116        -0.29129
C          7.46819        17.13810         0.09946
C          6.12496        19.23175         0.38584
C          7.42072        18.57187         0.32927
C          8.66730         2.03818         0.61792
C          8.63085         3.47790         0.52351
C          9.90474         1.36387         0.45888
C          9.86703         4.21492         0.40524
C          8.58621         6.32379         0.95899
C          8.58804         7.80188         0.64518
C          9.86095         5.62395         0.53249
C          9.77290         8.50210         0.76840
C          8.60143        10.69477         0.43335
C          8.71847        12.10424         0.01291
C          9.84001         9.93924         0.68250
C          9.87829        12.80241         0.28782
C          8.68786        14.97858         0.03634
C          8.62831        16.40552         0.28077
C          9.88831        14.26131         0.24263
C          9.85087        17.08853         0.72744
C          8.57591        19.30072         0.51098
C          9.85794        18.63313         0.75055
C         11.10655         2.06418         0.24153
C         11.09331         3.52246         0.27343
C         12.31250         1.39353        -0.03188
C         12.30216         4.24956         0.27053
C         11.06904         6.32666         0.58268
C         11.05156         7.74357         1.10680
C         12.29687         5.63946         0.45572
C         12.32607         8.49943         0.80306
C         11.06409        10.63994         0.77299
C         11.09153        12.09094         0.67068
C         12.29299         9.91021         0.85128
C         12.28991        12.80538         0.78238
C         11.11856        14.95171         0.48128
C         11.13653        16.39545         0.55638
C         12.32587        14.23278         0.63991
C         12.31056        17.11806         0.58992
C         11.12847        19.28673         0.46961
C         12.32651        18.56560         0.45199
C         13.53677         2.10822        -0.21362
C         13.61063         3.50257         0.36330
C         14.62460         1.51808        -0.79508
C         14.78104         4.32807        -0.10933
C         13.59422         6.32254         0.84441
C         13.54932         7.82200         0.69344
C         14.80040         5.68466         0.18520
C         14.78363         8.53467         0.53507
C         13.56426        10.60339         1.07902
C         13.55742        12.13185         1.11252
C         14.82262         9.93118         0.76302
C         14.83827        12.81924         0.88538
C         13.58307        14.92315         0.69554
C         13.62416        16.42715         0.80992
C         14.79447        14.23738         0.72043
C         14.74870        17.06040         0.04649
C         13.56222        19.20349         0.15186
C         14.74950        18.45968        -0.11639
C         15.86537         2.26652        -1.17275
C         15.93338         3.67965        -0.64086
C         17.12455         1.49912        -0.87336
C         17.14713         4.36646        -0.72487
C         15.98872         6.46007        -0.04807
C         15.98999         7.84074         0.18608
C         17.20453         5.78613        -0.46354
C         17.20345         8.66231        -0.17419
C         16.06497        10.65729         0.81846
C         16.05188        12.10855         0.93590
C         17.26697         9.97175         0.57069
C         17.29549        12.83395         0.71713
C         16.07874        15.02352         0.62339
C         15.90616        16.20920        -0.37641
C         17.27478        14.14972         0.31269
C         17.17542        17.01061        -0.46540
C         15.94088        19.12125        -0.54779
C         17.16421        18.41291        -0.63875
C         18.32422         2.14883        -0.77562
C         18.38277         3.60851        -0.83216
C         19.56587         1.41576        -0.62858
C         19.60158         4.25754        -0.77757
C         18.42037         6.48438        -0.55087
C         18.49882         7.87436        -0.21960
C         19.66181         5.74654        -1.01346
C         19.72154         8.53069        -0.06663
C         18.55870        10.58176         0.88696
C         18.58655        12.14703         0.94866
C         19.79976         9.80759         0.60402
C         19.83632        12.93990         0.76233
C         18.49156        14.80673        -0.19405
C         18.43373        16.27443        -0.55870
C         19.81197        14.21299         0.14291
C         19.71990        17.05677        -0.35735
C         18.38997        19.10141        -0.94350
C         19.63445        18.47267        -0.88998
C         20.75434         2.06507        -0.53125
C         20.81880         3.50916        -0.57180
C         22.00412         4.17946        -0.32169
C         20.94417         6.37733        -0.52731
C         20.99995         7.89195        -0.60604
C         22.03810         5.60718        -0.25390
C         22.26104         8.43346         0.00763
C         21.02266        10.18213         1.13741
C         21.07322        12.49064         1.26709
C         22.24729         9.47155         0.86738
C         22.24788        13.22855         1.11461
C         21.00857        14.94958        -0.07099
C         20.95894        16.26926        -0.85320
C         22.21613        14.43635         0.41642
C         22.18799        17.14227        -0.74535
C         20.84123        19.15093        -1.10907
C         22.09257        18.48981        -0.94272
O          6.11120        10.06901        -1.90256
O         13.55135        11.35987         2.35435
O         21.16845        11.28588         1.98096
O         18.39164        15.22779        -1.63548
O          5.17545        13.60053        -2.15209
O         18.55681        11.32381         2.14413
O          9.80215        17.81616         1.99080
O          2.63372         8.93403        -2.48080
O          7.55723        10.69060         1.56200
O          4.06528        17.11988        -1.52047
O          5.33608         5.07372        -1.79567
H          5.37450         5.92580        -2.28137
O         15.62251        15.62937        -1.69122
H         16.48801        15.31465        -2.04981
O         20.85312        15.95855        -2.25973
H         19.99828        15.47973        -2.39588
O          6.76590         8.35410         2.03212
H          7.20637         9.08624         2.52559
O         11.04900         7.58168         2.57264
H         11.90202         7.13953         2.80543
O         13.70293         6.08142         2.29530
H         13.83397         5.10223         2.40073
O         13.93054        16.69519         2.25487
H         13.14262        16.42614         2.77616
O          6.60152        16.70617        -2.04897
H          5.73382        16.64845        -2.51387
O         21.05297         8.23187        -2.02777
H         20.39106         7.65219        -2.48177
O         15.81835         2.38828        -2.64599
H         16.64019         2.84526        -2.92569
O         16.98705         9.05339        -1.59516
H         16.96251         8.22475        -2.12090
O         13.84694         3.32148         1.81547
H         13.13623         2.73136         2.14848
O          8.57218         6.20642         2.41848
H          9.37060         6.69146         2.74865
O         19.66415         5.91751        -2.49792
H         20.39370         5.35967        -2.84538
O         16.40702        15.58482         1.92307
H         15.59243        16.03064         2.27669
O          7.82000        12.75988        -2.07399
H          7.00429        13.10757        -2.51558
O          2.79194        16.49785         1.87690
H          2.02875        16.78992         2.41768
O         19.85626        17.22217         1.08199
H         19.85053        16.33696         1.50488
H          0.38880         1.46374         1.05639
H          0.35567         3.78067         0.22258
H          2.53768         0.27847         1.46579
H          0.38713         5.41639        -0.79763
H          0.53956         7.54910        -2.07841
H          0.55697        10.44173        -2.45587
H          0.44181        12.77150        -1.57858
H          0.36294        14.48088        -0.70950
H          0.31757        16.73619         0.19633
H          1.54366        18.91803         0.63582
H          5.00785         0.24982         1.31649
H          3.59910        20.24774         0.50793
H          7.51043         0.24135         1.01787
H          6.09990        20.28416         0.70740
H          9.92239         0.26407         0.48607
H          8.53372        20.39999         0.53787
H         12.29538         0.30885        -0.21688
H         11.12657        20.34902         0.18317
H         14.54340         0.48107        -1.15718
H         13.57744        20.29528         0.01935
H         17.08956         0.39915        -0.86230
H         15.92911        20.20910        -0.70514
H         19.52074         0.31763        -0.59085
H         18.33628        20.16524        -1.22118
H         21.69171         1.50468        -0.40180
H         22.92320         3.61294        -0.11801
H         22.98953         6.07136         0.04046
H         23.21973         7.99480        -0.30210
H         23.17636         9.85873         1.30856
H         23.18873        12.84589         1.53010
H         23.15326        14.98950         0.27516
H         23.18371        16.67895        -0.69665
H         20.82509        20.21873        -1.37191
H         23.01019        19.09526        -0.98976
