         324
 CSIRO Nanostructure Databank - Neutral Graphene Oxide Data Set
C          1.11330         3.64380        -0.91910
C         -0.09792         4.32345        -0.84491
C          1.05328         6.40106        -0.33888
C         -0.14069         5.69400        -0.55220
C          1.11853         7.82975        -0.00496
C          0.33255         8.57571         0.80204
C          1.01218        10.85471        -0.15599
C          0.91477         9.92927         1.02760
C          1.09709        12.33644         0.12005
C         -0.17498        13.09401         0.25970
C          0.96302        14.99097         1.41246
C         -0.22491        14.31360         0.82075
C          0.99128        16.46852         1.53652
C         -0.15176        17.22637         1.45886
C          1.05726        19.36244         1.38456
C         -0.12404        18.64670         1.38342
C          1.12321        20.76235         0.99678
C         -0.05134        21.48290         0.74208
C          1.20408        23.43637         0.02225
C         -0.01215        22.79211         0.26567
C          1.23925        24.71825        -0.68474
C          0.07704        25.26273        -1.28346
C          1.37185        27.01285        -2.35163
C          0.13137        26.40820        -2.06362
C          1.46007        28.21889        -3.15803
C          3.59582         3.63578        -0.78572
C          2.33641         4.32137        -0.68229
C          3.52551         6.41987        -0.02211
C          2.28531         5.71126        -0.39545
C          3.59786         7.87616        -0.08311
C          2.33719         8.61321        -0.47456
C          3.46722        10.62299         0.74357
C          2.20559         9.98917         0.20675
C          3.49504        12.07385         1.09901
C          2.32321        12.92589         0.73086
C          3.57093        15.01626         1.43112
C          2.27642        14.26897         1.40227
C          3.56188        16.41670         1.58340
C          2.28190        17.12633         1.81114
C          3.60222        19.34968         1.53303
C          2.30573        18.67628         1.73765
C          3.61557        20.76800         1.23076
C          2.38666        21.42539         0.87159
C          3.67537        23.44719         0.28958
C          2.42243        22.76886         0.38638
C          3.67820        24.92299        -0.07175
C          2.47744        25.36167        -0.89158
C          3.84279        26.98991        -2.20641
C          2.53718        26.46734        -1.76271
C          3.92222        28.18034        -3.13214
C          2.63761        28.81001        -3.48226
C          6.06233         3.60691        -0.82606
C          4.82799         4.26530        -0.60192
C          6.07209         6.46920        -0.24727
C          4.85845         5.66431        -0.11259
C          6.06557         7.82872         0.04082
C          4.79181         8.52345         0.13189
C          6.05240        10.73912         0.40500
C          4.75979        10.00052         0.27754
C          6.08393        12.09941         1.04728
C          4.79317        12.82185         1.32065
C          6.03055        15.01354         1.33318
C          4.79471        14.31023         1.33188
C          6.02187        16.44129         1.46441
C          4.78335        17.14774         1.58268
C          6.04319        19.32034         1.84510
C          4.77395        18.59919         1.62142
C          6.03769        20.85435         1.78334
C          4.82517        21.50615         1.23739
C          6.07648        23.76654         0.89678
C          4.85779        22.84471         0.73589
C          6.18714        24.76967        -0.26232
C          5.00435        25.37101        -0.64669
C          6.34808        27.26131        -1.76847
C          5.03506        26.63953        -1.38896
C          6.39138        28.34468        -2.79186
C          5.20913        28.88632        -3.27769
C          8.51460         3.63316        -1.00309
C          7.30019         4.28515        -0.77270
C          8.59728         6.49720        -0.48774
C          7.29948         5.77230        -0.66393
C          8.59743         7.90051         0.00195
C          7.31692         8.59495         0.11118
C          8.58170        10.71073         0.37044
C          7.31247         9.95758         0.33864
C          8.56649        12.19250         0.60581
C          7.29999        12.91554         0.90305
C          8.56071        15.01030         1.05118
C          7.27691        14.26860         1.13377
C          8.53831        16.48066         1.25182
C          7.25919        17.19518         1.48379
C          8.56813        19.29051         1.66509
C          7.30488        18.56873         1.66571
C          8.58516        20.71192         1.77947
C          7.36659        21.56991         1.75834
C          8.64473        23.55154         0.63667
C          7.40212        23.04221         1.24365
C          8.63143        24.41825        -0.56693
C          7.43592        25.26472        -0.76879
C          8.78761        26.93354        -2.04429
C          7.56035        26.45887        -1.51118
C          8.86108        28.22755        -2.67732
C          7.67057        28.87205        -3.09779
C         10.90500         3.79810        -1.54569
C          9.77367         4.32995        -0.98869
C         11.08513         6.43892        -0.40898
C          9.81829         5.63690        -0.22371
C         11.10881         7.76828         0.33435
C          9.80091         8.54207         0.23510
C         11.05769        10.62124         0.70689
C          9.85182         9.95705         0.51606
C         11.10238        12.04684         1.09802
C          9.81795        12.81927         1.13549
C         11.05739        14.93855         1.31524
C          9.86213        14.29571         1.18432
C         11.09520        16.35692         1.71754
C          9.79157        17.11941         1.75279
C         11.06205        19.22100         1.72828
C          9.80326        18.58662         1.71242
C         11.06843        20.63901         1.75884
C          9.84133        21.29320         1.99911
C         11.13346        23.36948         0.50273
C          9.88598        23.25044         1.17684
C         11.21470        24.25995        -0.64424
C          9.93766        24.84951        -1.16641
C         11.36971        26.89865        -2.01422
C         10.01891        26.14800        -1.91667
C         11.31564        28.34930        -2.29890
C         10.11491        28.89373        -2.78874
C         13.44775         3.87147        -1.67979
C         12.13721         4.62154        -1.81996
C         13.42581         6.68651        -1.15717
C         12.15909         5.92111        -1.04277
C         13.49145         8.08400        -0.60594
C         12.29480         8.64361         0.02214
C         13.56356        10.70728         0.46089
C         12.31799         9.96387         0.43091
C         13.56715        12.11657         0.75574
C         12.36747        12.79472         1.00119
C         13.63753        14.96426         1.36526
C         12.35692        14.29808         0.88338
C         13.64248        16.38799         1.67104
C         12.38237        17.08800         1.69597
C         13.53102        19.23609         1.83407
C         12.31884        18.49150         1.73946
C         13.50169        20.65692         1.68797
C         12.27998        21.37404         1.52723
C         13.57730        23.31199         0.69202
C         12.30880        22.68137         0.94269
C         13.66413        24.55875         0.04244
C         12.56623        24.99861        -0.82059
C         13.65598        27.19307        -1.05338
C         12.56005        26.37688        -1.31252
C         13.65351        28.57413        -1.51449
C         12.47715        29.11642        -2.09805
C         15.95925         3.77718        -1.45832
C         14.63325         4.51110        -1.50297
C         15.88574         6.62202        -1.11137
C         14.68484         5.94712        -1.26916
C         15.95293         7.95408        -0.55072
C         14.79493         8.66902        -0.26096
C         16.01277        10.75036         0.32175
C         14.79145        10.03371         0.22652
C         16.02457        12.14206         0.59400
C         14.81336        12.84866         0.80438
C         16.12421        14.88929         1.49339
C         14.81659        14.24473         1.20056
C         16.16526        16.36492         1.91729
C         14.85358        17.10856         1.91748
C         15.84043        19.38529         2.49759
C         14.77082        18.54397         2.06673
C         15.87165        20.77697         2.24028
C         14.71524        21.39484         1.69603
C         15.98889        23.45812         1.24473
C         14.76555        22.74047         1.24821
C         16.01501        24.80373         0.74430
C         14.84278        25.34259         0.12376
C         16.01424        27.45191        -0.28098
C         14.84322        26.66781        -0.40181
C         16.00714        28.80479        -0.79203
C         14.81797        29.33901        -1.36410
C         18.37053         3.87769        -2.22744
C         17.03267         4.58749        -2.22125
C         18.43225         6.64399        -1.39169
C         17.11968         6.00623        -1.66255
C         18.56376         7.74903        -0.36014
C         17.25391         8.51056        -0.09588
C         18.56705        10.73080         0.21617
C         17.27367         9.97475         0.30341
C         18.48348        12.20828         0.16092
C         17.28480        12.87006         0.54630
C         18.50792        14.96739         0.62945
C         17.32211        14.24457         0.87027
C         18.65469        16.33120         1.15487
C         17.50183        17.05621         1.73291
C         18.92637        19.11709         1.84068
C         17.81727        18.27648         2.27843
C         18.97810        20.50423         2.13229
C         17.04833        21.57946         2.37305
C         18.45471        23.52945         1.66026
C         17.17597        22.83436         1.76271
C         18.38598        25.00906         1.49497
C         17.18085        25.59675         0.85993
C         18.41131        27.69649         0.32023
C         17.19674        26.91340         0.32745
C         18.38814        29.02276        -0.21814
C         17.18039        29.56647        -0.72708
C         19.56193         4.47829        -2.01289
C         20.86008         6.55789        -1.55044
C         19.68179         5.87256        -1.63420
C         20.86714         7.96861        -1.22626
C         19.77292         8.61227        -0.72737
C         20.83229        10.93005        -0.91986
C         19.81480        10.04593        -0.33006
C         20.76406        12.27548        -0.78968
C         19.62533        12.95207        -0.20020
C         20.66035        15.20292        -0.57373
C         19.60994        14.36721        -0.03136
C         20.74613        16.53101        -0.31747
C         19.89477        17.15006         0.70412
C         20.74015        19.49834         0.25074
C         19.85629        18.61296         0.89686
C         20.71076        20.86538         0.50818
C         19.81006        21.40784         1.45235
C         20.89777        23.64678         1.43317
C         19.68364        22.87641         1.60428
C         20.91958        24.99883         1.31697
C         19.68747        25.79778         1.37850
C         20.81180        27.92765         0.68665
C         19.64836        27.15661         0.76874
C         20.77810        29.23906         0.18202
C         19.58634        29.78393        -0.26120
O          8.63162        15.94067        -0.11445
O          2.26284        17.95453         3.00860
O          9.93738        22.62300         2.43070
O         18.93693        25.74558         2.63844
O          5.82231        24.60718         2.00003
O          1.48271        14.30076         2.62351
O         17.22460         8.91759         1.31893
O         16.91483        18.85023         3.18759
O         17.72726         6.96727        -2.63108
O         19.86593        16.43738         1.97645
O          4.17191         5.84991         1.16691
O          5.61372        27.72183        -0.57613
O         19.60881        10.24838         1.11815
O         10.85368        26.08334        -3.11144
O         16.26552        15.28058         2.89985
O         10.33692        16.55632         2.98496
O          7.45943        22.70184         2.64825
O          8.01820         6.38165        -1.81791
O          8.67867        11.70755        -0.76724
O          5.55523        12.20083         2.40822
O          5.91625        20.15493         3.05479
O          2.10638        13.01714        -0.72394
O          4.05196        26.77341        -3.64205
O          9.12045        23.81536        -1.83034
O         18.11653        21.04166         3.10538
O         10.33148        12.24620         2.38107
O          3.30807        11.04561         2.12828
O         13.31939         7.83605        -2.06814
O          5.30996        10.73883        -0.87290
O         12.13190        23.91689        -1.71183
O         16.36545         3.58784        -0.09631
H         16.39758         4.45901         0.35059
O         12.04605         4.97989        -3.23538
H         11.28590         5.58975        -3.34453
O          3.56388        25.66014         1.18032
H          4.36588        25.39108         1.73147
O         18.90143         7.06393         0.86918
H         18.79721         7.72458         1.59368
O         16.58218         4.67410        -3.59037
H         17.01870         5.46207        -3.98401
O         12.37733        14.56553        -0.58448
H         11.56114        14.18355        -0.97494
O          9.72356         5.28092         1.19812
H         10.37041         4.56475         1.37344
O          0.26516        10.54952        -1.32135
H          0.47234        11.23123        -1.99407
O         11.25847         7.44382         1.75775
H         10.55803         6.77728         1.96854
O          2.33046         8.72922        -1.90836
H          1.48660         9.17722        -2.14586
H          1.12911         2.56923        -1.15093
H         -1.03693         3.77934        -1.01846
H         -1.10551         6.21639        -0.49376
H         -0.58087         8.23209         1.30420
H          0.87340        10.37466         2.03547
H         -1.09110        12.62213        -0.12595
H         -1.19370        14.83119         0.87830
H         -1.12838        16.73687         1.34239
H         -1.08044        19.15129         1.19497
H         -1.03258        21.01663         0.89734
H         -0.96396        23.29921         0.06202
H         -0.89803        24.78116        -1.13195
H         -0.79009        26.82339        -2.49632
H          0.51415        28.68821        -3.46801
H          3.58332         2.57834        -1.09174
H          2.65135        29.76944        -4.02020
H          6.05566         2.53176        -1.06227
H          5.24504        29.78289        -3.91575
H          8.50717         2.56733        -1.27882
H          7.74576        29.78681        -3.70431
H         10.83645         2.82621        -2.06055
H         10.11215        29.93955        -3.13065
H         13.43645         2.78319        -1.84715
H         12.46957        30.17946        -2.38147
H         15.85763         2.76508        -1.91744
H         14.82797        30.37826        -1.72502
H         18.34925         2.81704        -2.52083
H         17.18147        30.59419        -1.11967
H         20.49212         3.89785        -2.11473
H         21.81571         6.06175        -1.77190
H         21.81010         8.51309        -1.38137
H         21.67121        10.48447        -1.47231
H         21.58240        12.88124        -1.20091
H         21.36022        14.76418        -1.29760
H         21.47975        17.14668        -0.85589
H         21.46340        19.11280        -0.47997
H         21.38389        21.52928        -0.05139
H         21.84676        23.09515         1.37046
H         21.87163        25.50249         1.09624
H         21.76714        27.52216         1.04672
H         21.70390        29.82941         0.14679
H         19.55571        30.80698        -0.66220
