         720
 CSIRO Nanostructure Databank - Neutral Graphene Oxide Data Set
C         22.90507        27.57334         0.42564
C         22.94207        28.87398         0.82845
C         23.05983        31.77616         1.53173
C         23.09083        33.17741         1.75009
C         23.01251        36.09385         1.69991
C         22.98071        37.43280         1.83847
C         24.65064        40.69462         2.64980
C         24.06540        42.04017         2.43264
C         23.01752        44.59308         1.17100
C         23.11129        45.93392         1.23987
C         25.30987        24.92480        -0.86549
C         24.14417        25.52732        -0.56514
C         25.34150        27.76983        -0.23472
C         24.04095        26.98243        -0.29089
C         25.35489        29.04622         0.47448
C         24.16403        29.65542         0.83633
C         25.49499        31.74269         1.25130
C         24.20797        31.05279         1.25456
C         25.50293        33.24498         1.10618
C         24.24222        33.92407         1.58059
C         25.48751        36.05263         1.77671
C         24.26243        35.35725         1.71700
C         25.51294        37.49273         1.84156
C         24.21826        38.20131         2.19688
C         25.45047        40.34211         1.36407
C         24.14854        39.63495         1.69443
C         25.34212        41.58902         0.54637
C         24.34870        42.48205         1.18758
C         25.33010        44.42393         0.09144
C         24.00876        43.73561         0.43245
C         25.27186        45.89138        -0.04980
C         24.22121        46.65191         0.64656
C         25.54762        48.70114         0.46597
C         24.32931        48.01852         0.76118
C         27.94488        23.58525        -1.75834
C         27.93241        24.93912        -1.14738
C         26.63246        25.60152        -0.77202
C         27.96068        27.70659        -0.16843
C         26.64083        27.09534        -0.57429
C         27.91346        28.84651         0.79740
C         26.63275        29.59668         0.97985
C         27.98661        31.81345         1.03595
C         26.67763        31.05682         1.21403
C         27.99376        33.10211         1.88196
C         26.75449        33.93268         1.60975
C         28.00287        36.01677         1.98383
C         26.73040        35.28854         1.77823
C         27.99160        37.51405         1.84088
C         26.70203        38.21546         1.70937
C         27.88531        40.22071         0.83963
C         26.73580        39.61444         1.35230
C         27.83077        41.42084        -0.13346
C         26.53024        42.23252        -0.08867
C         27.73580        44.43352        -0.49938
C         26.49649        43.73276        -0.16812
C         27.79944        45.79921        -0.54119
C         26.58489        46.62530        -0.35753
C         28.01613        48.67425         0.08639
C         26.67635        48.03551         0.05366
C         28.12100        50.13987         0.07324
C         30.41444        23.59333        -1.94623
C         29.08303        22.95400        -2.08394
C         30.46659        25.05298        -1.53795
C         29.16141        25.85460        -1.38137
C         30.41599        27.38381         0.34278
C         29.18631        26.91372        -0.29035
C         30.48704        28.76106         0.96336
C         29.20628        29.52399         1.17956
C         30.54835        31.72526         1.33797
C         29.23848        31.00994         1.37104
C         30.52425        33.16444         1.58169
C         29.30792        33.83689         1.71675
C         30.50383        36.06417         2.05881
C         29.27430        35.32680         1.51461
C         30.42977        37.50136         1.53854
C         29.24735        38.18323         1.41420
C         30.32145        40.18655         0.38043
C         29.17470        39.55342         0.87806
C         30.35202        41.54909        -0.13535
C         29.05882        42.34829         0.03229
C         30.23396        44.33252        -0.99583
C         28.92115        43.57562        -0.91890
C         30.27672        45.69094        -1.08000
C         29.01228        46.53060        -1.07272
C         30.37962        48.67083        -0.88449
C         29.21597        47.89635        -0.42088
C         30.44612        50.06095        -0.73280
C         29.26811        50.77058        -0.26772
C         32.83637        20.67464        -2.13963
C         31.67097        21.41688        -2.13968
C         32.91439        23.53553        -1.73114
C         31.63869        22.78740        -1.80846
C         32.91757        24.90882        -1.16398
C         31.72892        25.57500        -0.96823
C         32.97055        27.59200        -0.09751
C         31.73352        26.77089        -0.09474
C         32.98830        28.92892         0.29947
C         31.77345        29.55581         0.88757
C         32.99291        31.72549         1.12449
C         31.72701        31.03813         1.06473
C         32.99208        33.07156         1.61324
C         31.79202        33.87798         1.70832
C         32.97982        36.10121         1.75999
C         31.80956        35.31008         1.79247
C         32.97338        37.53100         1.39007
C         31.67818        38.24097         1.27837
C         32.86435        39.99812        -0.15098
C         31.58835        39.41598         0.36445
C         32.83396        41.37479        -0.81368
C         31.50035        42.12792        -0.62435
C         32.77576        44.26146        -1.34098
C         31.43978        43.47736        -1.34933
C         32.72283        45.74675        -1.34553
C         31.52998        46.41477        -1.28971
C         32.76915        48.64965        -1.73009
C         31.48585        47.89843        -1.47101
C         32.80865        50.11217        -1.50131
C         31.63921        50.80269        -1.06586
C         32.91637        52.90148        -1.05514
C         31.79733        52.20172        -0.72894
C         35.40746        19.05070        -1.65086
C         35.27368        20.45623        -1.19875
C         34.06513        21.26576        -1.57992
C         35.54322        23.44339        -1.45427
C         34.20264        22.75355        -1.74714
C         35.38926        24.68068        -0.53788
C         34.16605        25.54141        -0.78039
C         35.42585        27.70662        -0.67943
C         34.17896        26.88911        -0.44888
C         35.43086        29.03129         0.06409
C         34.24264        29.67223         0.37028
C         35.45887        31.76793         0.99796
C         34.23337        31.06107         0.84954
C         35.47897        33.03736         1.62082
C         34.24675        33.54183         2.06869
C         35.47235        36.13349         1.62850
C         34.26290        35.62063         2.11360
C         35.44914        37.42267         0.99626
C         34.21365        38.11535         0.82011
C         35.39399        40.11863         0.09238
C         34.17404        39.40956         0.27558
C         35.35919        41.51767        -0.31219
C         34.01308        42.22838        -0.30072
C         35.34486        44.35047        -0.88723
C         34.07563        43.58447        -0.99352
C         35.31758        45.81527        -1.00511
C         33.99676        46.50566        -1.24350
C         35.24951        48.57830        -1.73750
C         34.04847        47.91471        -1.65946
C         35.27166        50.05615        -1.69967
C         34.00957        50.79183        -1.68759
C         35.30303        52.96882        -2.04187
C         33.95635        52.27453        -1.95080
C         35.31575        54.41036        -2.12050
C         37.61419        18.86128        -0.56817
C         36.52208        18.33546        -1.42093
C         37.61922        20.34517        -0.26998
C         36.53107        21.18422        -0.84939
C         37.82651        23.24130        -0.44014
C         36.60103        22.54793        -0.83454
C         37.88660        24.69655        -0.40969
C         36.70599        25.43150        -0.54523
C         38.02176        27.53903        -0.09639
C         36.72596        26.89019        -0.59139
C         37.91798        28.88270         0.53206
C         36.72997        29.73058         0.20115
C         38.02560        31.71355         1.26403
C         36.76112        31.13485         0.70158
C         38.04447        33.22258         1.30722
C         36.72125        33.81607         1.82982
C         38.00150        36.03208         1.37836
C         36.72866        35.38630         1.81898
C         37.94915        37.36475         0.89116
C         36.67713        38.08152         0.72073
C         37.86947        40.22543         0.35106
C         36.62091        39.44610         0.35810
C         37.81815        41.62950        -0.15849
C         36.51964        42.23694        -0.51840
C         37.80167        44.37906        -0.98537
C         36.55092        43.66779        -0.82716
C         37.81017        45.79672        -1.28258
C         36.55873        46.52937        -1.37075
C         37.74556        48.57739        -2.16462
C         36.51199        47.86769        -1.73245
C         37.74419        50.08332        -2.46564
C         36.55203        50.80973        -1.86724
C         37.75638        52.92909        -2.47224
C         36.47981        52.26756        -2.14316
C         37.75122        54.46700        -2.51829
C         36.46521        55.12348        -2.24433
C         40.07430        15.92536        -0.30245
C         38.87885        16.68873        -0.46894
C         40.07567        18.77845         0.03279
C         38.85886        18.06128        -0.37828
C         40.14647        20.25540        -0.12806
C         38.89753        21.04739         0.20601
C         40.25386        23.14180        -0.14732
C         38.97204        22.49804        -0.22239
C         40.32851        24.51660         0.12364
C         39.14397        25.32590        -0.02089
C         40.38543        27.40732         0.64379
C         39.17655        26.70920         0.26042
C         40.41752        28.74794         0.95760
C         39.16033        29.51243         1.10026
C         40.49218        31.64885         1.37134
C         39.19859        30.99366         1.27913
C         40.59977        33.05806         1.93977
C         39.25271        33.91254         2.03532
C         40.40866        35.96635         0.95800
C         39.24965        35.34382         1.44786
C         40.38546        37.31399         0.49774
C         39.16327        38.01803         0.54989
C         40.42303        40.14319        -0.13312
C         39.17815        39.48638         0.39465
C         40.33502        41.48872        -0.78533
C         39.03862        42.22705        -0.77319
C         40.28021        44.33564        -1.09279
C         39.05303        43.69376        -0.94128
C         40.33922        45.78229        -1.49339
C         39.01244        46.48094        -1.40905
C         40.24810        48.69716        -1.56686
C         39.04846        47.88229        -1.86121
C         40.22242        50.08028        -1.74530
C         39.04044        50.79958        -2.11068
C         40.21166        52.99191        -2.05799
C         39.03513        52.21839        -2.19043
C         40.20732        54.41476        -2.12412
C         39.03353        55.17033        -2.28321
C         40.20889        57.31473        -2.01143
C         39.06098        56.60371        -2.19996
C         42.53833        15.80806         0.02804
C         41.30181        16.52712        -0.09787
C         42.67011        18.67771        -0.05303
C         41.36589        17.98474         0.11505
C         42.54044        20.02635        -0.78671
C         41.34974        20.86554        -0.33333
C         42.58888        22.90194        -0.90028
C         41.42209        22.31840        -0.41219
C         42.86411        24.49466         0.96819
C         41.48320        25.18113         0.90635
C         42.93202        27.26796         0.99661
C         41.65469        26.61460         0.40479
C         42.90287        28.78020         0.65092
C         41.70445        29.44853         1.34328
C         42.95860        31.62804         1.04155
C         41.67529        30.95313         1.17275
C         42.97709        33.01699         0.96763
C         41.78574        33.81080         1.36817
C         42.82683        35.76552         0.10536
C         41.71137        35.25031         0.99264
C         42.86019        37.26381         0.06551
C         41.60731        37.97813         0.01324
C         42.82395        39.98861        -0.86919
C         41.59311        39.30026        -0.42400
C         42.83187        41.47492        -1.27663
C         41.58874        42.25817        -0.90473
C         42.78199        44.42791        -1.10050
C         41.54519        43.63977        -1.02426
C         42.77792        45.80948        -0.99051
C         41.43773        46.49927        -0.70185
C         42.72513        48.74714        -0.96991
C         41.42569        48.01305        -0.95789
C         42.75427        50.10355        -1.64629
C         41.45297        50.89987        -1.38739
C         42.67575        53.03475        -1.38950
C         41.54492        52.27397        -2.07227
C         42.62095        54.40330        -1.31425
C         41.50218        55.12682        -1.97541
C         42.63201        57.32844        -1.27197
C         41.50851        56.63723        -1.94545
C         43.71059        16.47856         0.25013
C         45.18028        18.51705         0.39515
C         43.81545        17.91992         0.13945
C         45.02604        20.13755        -1.33697
C         43.82480        20.81611        -0.83280
C         45.12358        22.89727        -0.38346
C         43.84268        22.19069        -0.80425
C         45.14410        24.40719        -0.22737
C         44.07116        25.14215         0.33548
C         45.41095        27.20474         0.43983
C         44.16569        26.55286         0.47736
C         45.46090        28.74722         0.37376
C         44.21813        29.48962         0.84315
C         45.44923        31.63004         0.70672
C         44.20790        30.87437         0.85990
C         45.43812        33.03858         0.66578
C         44.18331        33.74816         0.68326
C         45.36240        35.88548         0.41565
C         44.15342        35.12301         0.43584
C         45.31471        37.28327         0.32366
C         44.06844        37.95011         0.10330
C         45.25709        40.20499        -0.01569
C         44.10318        39.34160        -0.38804
C         45.24251        41.62761        -0.45268
C         44.10000        42.22031        -0.89007
C         45.33643        44.45687        -1.13653
C         44.05771        43.67902        -1.23405
C         45.27317        45.92813        -1.00390
C         44.01017        46.58406        -0.98331
C         45.20300        48.75195        -0.95572
C         44.00739        48.00254        -0.96594
C         45.17388        50.21010        -0.96909
C         43.95921        50.90087        -1.19160
C         45.03898        53.01149        -0.59395
C         43.87926        52.30472        -1.01520
C         44.94589        54.41309        -0.17722
C         43.62261        55.17712        -0.56230
C         43.61607        56.65184        -0.65375
C         47.45392        18.63863        -0.74780
C         46.40287        17.94049        -0.26409
C         47.59820        20.14813        -0.66581
C         46.35371        20.84711        -1.23956
C         47.62573        23.04548        -1.00596
C         46.33510        22.32551        -1.09347
C         47.63280        24.39415        -0.79988
C         46.39450        25.05969        -0.36086
C         47.89324        26.81989         0.35188
C         46.52864        26.37848         0.12561
C         47.96394        28.92589         0.93432
C         46.72998        29.49992         0.75761
C         47.91167        31.66277         0.59178
C         46.70297        30.94959         0.62808
C         47.89550        33.08353         0.52186
C         46.65450        33.77546         0.55807
C         47.85595        35.91426         0.43263
C         46.64303        35.20408         0.50216
C         47.84303        37.41624         0.22981
C         46.55227        38.04774         0.75627
C         47.80623        40.27934         0.27186
C         46.51788        39.55175         0.47360
C         47.75819        41.65302        -0.03033
C         46.45243        42.43226         0.00174
C         47.74171        44.47415        -0.61109
C         46.55561        43.77393        -0.67036
C         47.75336        45.92790        -0.89435
C         46.46599        46.65398        -0.90744
C         47.64849        48.82015        -0.55519
C         46.45609        48.07729        -0.83547
C         47.61068        50.25238        -0.50293
C         46.36621        50.94495        -0.75789
C         47.49825        53.12007        -0.31863
C         46.31004        52.36760        -0.57396
C         47.40118        54.50327        -0.03486
C         46.18549        55.14068         0.06589
C         50.09414        20.13321        -1.20827
C         48.85612        20.80056        -1.20146
C         50.14867        23.01985        -1.28810
C         48.83935        22.27148        -1.35355
C         50.18466        24.47423        -1.00166
C         48.86925        25.22254        -1.18358
C         50.19335        27.39465        -0.63132
C         48.96347        26.51880        -0.42011
C         50.29028        28.78990         0.02013
C         49.23903        29.51035         0.55897
C         50.38554        31.70002         0.14636
C         49.25942        30.99315         0.82916
C         50.32160        33.07725         0.04963
C         49.11373        33.81573         0.35831
C         50.34372        35.99668         0.23101
C         49.09599        35.23125         0.34137
C         50.36288        37.42541         0.35882
C         49.09612        38.13709         0.79724
C         50.25524        40.30372         0.17862
C         49.05032        39.60024         0.37267
C         50.21134        41.67601        -0.12239
C         48.97425        42.36751        -0.18038
C         50.15171        44.55218        -0.02491
C         48.96529        43.80492        -0.31048
C         50.12180        45.96462         0.08764
C         48.98636        46.70231        -0.48550
C         49.94291        48.82960         0.33411
C         48.87845        48.15292        -0.24388
C         49.85431        50.28044         0.52565
C         48.74859        50.97844        -0.13552
C         50.04922        53.13581         0.05039
C         48.83752        52.43361        -0.51268
C         51.30585        20.79459        -1.15097
C         52.58644        23.00199        -1.36426
C         51.37511        22.26357        -0.83786
C         52.64112        24.41592        -1.21146
C         51.39310        25.11976        -0.87680
C         52.78532        27.30407        -0.72849
C         51.48680        26.56937        -0.53318
C         52.72801        28.80450        -0.69028
C         51.54467        29.49628        -0.28822
C         52.77443        31.62032        -0.40132
C         51.56580        30.92481        -0.19486
C         52.80024        33.10846        -0.36853
C         51.51622        33.86367        -0.28506
C         52.79397        36.00415        -0.03391
C         51.54489        35.30982         0.03089
C         52.78065        37.44189        -0.00754
C         51.55321        38.13298         0.22900
C         52.70612        40.28613        -0.42625
C         51.60381        39.63816         0.44671
C         52.78900        41.80999        -0.24620
C         51.45265        42.47996        -0.20926
C         52.54097        44.57528         0.57038
C         51.37265        43.87942         0.21565
C         52.45101        45.97032         0.81196
C         51.23486        46.64940         0.60489
C         52.30098        48.86406         1.42093
C         51.09820        48.09989         0.89989
C         52.37961        50.30763         1.07541
C         51.11192        51.06481         0.93710
C         51.10457        52.51322         0.59819
C         54.63218        23.00097        -2.59880
C         53.58979        22.29165        -2.02115
C         54.71750        24.38032        -2.40164
C         53.81078        25.14433        -1.61634
C         55.15847        27.31471        -1.46827
C         53.98567        26.59469        -1.32114
C         55.18803        28.84677        -1.43133
C         53.92479        29.51776        -0.90865
C         55.21549        31.68078        -0.79734
C         53.94433        30.92090        -0.74741
C         55.24015        33.03182        -0.16852
C         53.99791        33.77163         0.27492
C         55.22278        36.04233        -0.07012
C         54.03187        35.28778         0.02827
C         55.11812        37.38472        -0.53490
C         53.99019        38.14992        -0.29934
C         55.33169        40.39805         0.17680
C         54.07975        39.63495        -0.31054
C         55.14569        41.77603         0.74271
C         53.91938        42.50649         0.42957
C         54.86402        44.55646         1.47923
C         53.78479        43.84356         0.79373
C         54.83512        45.92056         1.58009
C         53.72914        46.75204         0.95595
C         54.86651        48.85801         1.50271
C         53.58856        48.08262         1.74505
C         54.83638        50.14975         1.03140
C         53.61126        50.85872         0.81224
C         57.94442        24.74647        -2.17339
C         56.76149        25.41800        -2.29855
C         57.75044        27.42722        -1.19732
C         56.51749        26.77647        -1.79654
C         57.61452        28.74693        -0.53791
C         56.44096        29.42554        -0.74104
C         57.59562        31.49484         0.24472
C         56.48824        30.89376        -0.61487
C         57.78560        32.99001        -0.12722
C         56.42474        33.48632         0.27044
C         57.78692        36.15252         0.44710
C         56.50773        35.62357         0.44917
C         57.94198        37.60021         0.54671
C         56.95717        38.45452        -0.00390
C         57.50898        40.21206         1.50789
C         56.59173        39.67983         0.56824
C         57.27030        41.56570         2.03391
C         56.10368        42.34543         1.54664
C         57.24343        44.45532         2.35311
C         55.91193        43.71745         2.19706
C         57.22393        45.91978         2.51999
C         55.93346        46.70193         2.20494
C         57.29570        48.76686         2.05290
C         56.06336        48.14058         1.88477
C         59.02232        25.31501        -1.42161
C         60.02166        27.20341        -0.18740
C         58.94489        26.59863        -0.92800
C         59.98635        28.50763         0.21297
C         58.83344        29.35925         0.02010
C         59.92844        31.43950         1.00294
C         58.86361        30.71158         0.34131
C         59.91606        32.78916         1.22500
C         58.94266        33.72755         0.59333
C         59.85391        35.89583         1.83356
C         58.92897        35.25281         0.86454
C         59.81030        37.22679         2.10106
C         58.84915        38.13159         1.48775
C         59.78943        40.23090         2.46863
C         58.69736        39.50852         1.85346
C         59.74448        41.56980         2.68240
C         58.47810        42.31288         2.58862
C         59.67610        44.54708         2.61991
C         58.44632        43.79989         2.51184
C         59.70173        45.91508         2.55706
C         58.48905        46.66611         2.47340
C         58.47762        48.05249         2.34036
O         27.34614        27.95536        -1.50793
O         38.49080        47.92636        -3.25261
O         37.87590        41.36612         1.28421
O         29.10917        30.11740         2.50686
O         44.90639        19.14132        -2.06713
O         55.76482        24.94198        -3.14027
O         25.46406        41.57451        -0.89901
O         32.46893        38.42844         2.50750
O         57.45844        41.73132         3.48717
O         27.12205        28.61996         2.00631
O         48.03746        27.64687         1.46311
O         56.25094        37.96335        -1.11129
O         46.33910        21.70710        -2.43551
O         36.96440        30.82411        -0.75855
O         44.82869        43.97802        -2.44891
O         50.09968        50.73977         1.92752
O         41.90461        55.89604        -3.16675
O         36.77468        34.59486         3.03334
O         48.72545        46.34962        -1.89861
O         56.41864        34.47672         1.25302
O         31.35816        28.83049         2.11331
O         56.28644        46.35176         3.56691
O         33.67993        23.27481        -3.00093
O         52.37031        26.78626         0.60520
O         25.57368        46.38209        -1.39198
O         43.01124        23.54197         1.73237
O         37.75368        53.65451        -3.73975
O         36.17376        50.46316        -0.51639
O         28.08991        36.83921         3.16555
O         40.12640        40.14435         1.30786
O         52.21984        33.65815        -1.58333
O         39.46927        41.49793        -1.98564
O         31.88093        48.28774        -2.84502
O         34.26473        34.55728         3.02607
O         37.11725        19.39484         0.72497
O         56.14240        31.50675        -1.89945
O         45.25806        19.44111         1.20666
O         31.13664        26.41186         1.20757
O         37.71407        27.47141        -1.52443
O         49.56873        22.72313        -2.59066
O         45.57054        40.15528         1.44122
O         57.40949        27.63242        -2.62958
O         34.56596        46.39818         0.13653
O         43.71735        39.29435        -1.80940
O         24.47875        27.79968        -1.42812
O         52.27308        42.44848        -1.45851
O         40.63064        18.37762         1.34121
O         38.16158        28.84412         1.97307
O         33.64237        43.69024        -2.39282
O         43.86603        54.68854         0.78319
O         51.24747        48.45366         2.33816
O         32.08716        39.05382        -0.98599
O         41.95293        48.69322         0.27496
O         59.63630        34.66686        -0.30728
O         28.94667        47.97928         1.00903
O         34.23882        20.76111        -0.18981
O         42.17553        34.88723         2.32922
O         55.00387        40.26262        -1.24497
O         30.64428        24.67377        -2.95168
O         27.48405        24.92808         0.24314
O         27.93257        40.79434        -1.42703
H         27.01620        40.69139        -1.77083
O         46.54559        37.90386         2.20767
H         45.87629        38.54195         2.54871
O         29.25916        35.50870         0.06004
H         29.85680        34.84474        -0.34505
O         52.27536        39.99866        -1.76989
H         52.87310        40.47861        -2.38298
O         42.64429        24.09875        -1.52420
H         41.76637        24.54490        -1.56902
O         54.12990        47.12536        -0.39717
H         54.12394        46.31596        -0.95125
O         41.85933        29.31539         2.79240
H         41.11927        29.79593         3.22241
O         33.70181        42.48538         1.09441
H         34.48754        42.88199         1.52725
O         42.22046        19.59793        -2.14616
H         43.05538        19.21281        -2.51504
O         23.03262        39.88096         0.88285
H         23.00197        40.83637         0.65840
O         41.36409        51.23876         0.01295
H         41.40478        50.39607         0.52837
O         42.64712        28.93100        -0.78426
H         43.52659        28.98111        -1.23695
O         45.40673        28.94941        -1.11026
H         46.22121        28.56303        -1.50138
O         36.10176        23.87732        -2.70866
H         35.34470        24.04817        -3.31894
O         38.99569        34.05749         3.42603
H         39.48677        33.34873         3.90560
O         57.99026        33.13035        -1.53363
H         58.65824        33.84455        -1.66355
O         49.50414        31.16398         2.27230
H         48.81453        30.65758         2.75233
O         42.99685        27.03160         2.40878
H         42.35170        27.61969         2.87096
O         24.23610        38.26164         3.66579
H         24.33213        37.34285         3.99579
O         51.37273        22.38736         0.61986
H         52.15008        21.90432         0.96951
O         53.80854        33.57028         1.70245
H         54.64649        33.83650         2.14303
O         35.17213        24.13043         0.79300
H         35.02151        24.86411         1.42518
O         28.09186        32.17498        -0.35989
H         27.25311        32.63773        -0.61843
O         35.29070        28.09463        -2.08588
H         36.19570        28.33223        -2.39753
O         30.44446        36.07765         3.50330
H         31.13306        36.69935         3.82326
O         33.41698        52.41032        -3.32154
H         32.55506        51.94137        -3.34929
O         49.07222        52.45391        -1.97665
H         48.30990        52.00626        -2.40308
O         49.15965        38.10106         2.24504
H         48.23133        38.08590         2.59304
O         27.90422        32.67878         3.26898
H         28.12841        33.44218         3.84170
O         46.20067        42.76538         1.41265
H         46.00218        41.91040         1.86922
O         28.59780        43.14402        -2.25493
H         29.43460        42.84240        -2.68936
O         42.46791        35.33109        -1.24820
H         43.07299        35.77428        -1.88028
O         38.15994        33.61820        -0.09539
H         37.73652        32.92865        -0.65414
O         45.34632        22.41139         0.97849
H         44.58005        22.71418         1.53620
O         31.21391        43.11698        -2.74934
H         32.03595        42.63991        -3.03522
O         29.05030        42.88577         1.37341
H         29.30173        42.17308         1.99785
O         55.24737        29.22265        -2.83224
H         56.13509        28.95431        -3.16936
O         28.97733        26.53605        -2.64218
H         29.44419        26.00537        -3.33128
O         37.55150        50.22624        -3.89517
H         38.13382        49.56017        -4.32795
O         41.79820        26.49965        -1.03126
H         41.94377        27.42103        -1.37147
O         40.75752        45.85879        -2.88630
H         40.04313        45.49109        -3.44796
O         47.64421        20.52193         0.73804
H         46.76925        20.30042         1.15851
O         38.82386        21.12570         1.65590
H         38.35471        20.31286         1.95818
O         33.02873        41.15083        -2.22601
H         32.53403        40.32632        -2.44412
O         28.72054        46.83716        -2.46447
H         28.51058        45.99627        -2.92453
O         41.02325        32.75534         3.30908
H         41.54310        33.53542         3.61644
O         51.93984        39.87401         1.83441
H         51.25887        39.42564         2.38381
O         42.90826        49.77712        -3.04330
H         42.74946        50.59531        -3.57343
O         47.83554        37.65552        -1.19981
H         48.63053        37.23413        -1.59026
O         48.75906        25.45627        -2.62485
H         48.91738        24.58103        -3.05958
O         41.01111        25.21476         2.26526
H         41.27698        24.36672         2.68650
O         57.03903        31.47393         1.60375
H         57.77749        31.58997         2.23915
O         53.56173        47.76141         3.14516
H         52.61740        47.74362         3.42681
O         23.37352        43.34402        -0.81398
H         24.01913        42.77121        -1.29492
O         25.56115        33.45274        -0.36746
H         25.44581        34.41419        -0.53191
O         42.79972        41.49674        -2.73011
H         43.39100        40.77461        -3.04348
O         50.10860        27.76718        -2.04900
H         49.70630        27.00982        -2.54624
O         41.88529        52.13597        -3.48279
H         41.78517        53.01592        -3.90615
O         41.14110        46.28419         0.69220
H         41.57551        47.01005         1.19660
O         55.37968        43.47591         3.52672
H         56.02981        42.89157         3.98719
H         22.00919        26.96041         0.60229
H         22.04614        29.30629         1.29614
H         22.08531        31.27162         1.57589
H         22.15060        33.66854         2.03715
H         22.08039        35.54865         1.49782
H         22.02958        37.97949         1.78611
H         24.99991        40.37969         3.64479
H         23.43305        42.54841         3.17121
H         22.15107        44.07717         1.61055
H         22.34207        46.52090         1.76445
H         25.31338        23.84304        -1.06464
H         23.21357        24.93935        -0.56277
H         25.60120        49.76649         0.72931
H         23.51437        48.58721         1.23186
H         26.98570        23.06033        -1.87867
H         27.22878        50.74022         0.29894
H         29.03657        21.93457        -2.49402
H         29.28050        51.86853        -0.27010
H         32.79604        19.59813        -2.35443
H         30.73292        20.91143        -2.41116
H         32.99988        53.96022        -0.77078
H         31.01334        52.70300        -0.14468
H         34.58878        18.60950        -2.23810
H         34.36689        54.94803        -1.98479
H         36.61855        17.32000        -1.83224
H         36.42779        56.21755        -2.14771
H         40.01376        14.83026        -0.38098
H         37.95321        16.14476        -0.70631
H         40.17190        58.40451        -1.86856
H         38.11243        57.15280        -2.27288
H         42.52455        14.70882        -0.00073
H         42.62294        58.42887        -1.25484
H         44.63440        15.90713         0.42176
H         44.40315        57.20075        -0.11742
H         48.25147        18.07139        -1.25542
H         46.39057        16.85209        -0.43639
H         48.31641        55.08028         0.15669
H         46.14110        56.19341         0.37451
H         50.10118        19.03204        -1.20185
H         50.12895        54.21511        -0.14954
H         52.21909        20.18954        -1.05255
H         51.98504        53.10785         0.88777
H         55.38978        22.50351        -3.21644
H         53.52338        21.20541        -2.15629
H         55.77548        50.69030         0.84512
H         53.67980        51.90442         0.47974
H         58.07010        23.76792        -2.65354
H         57.37184        49.85285         1.89982
H         59.93362        24.72189        -1.26111
H         60.91916        26.59673         0.00373
H         60.86778        28.93451         0.71176
H         60.78753        30.86898         1.38966
H         60.77468        33.23397         1.75069
H         60.61501        35.27377         2.32765
H         60.51624        37.63995         2.83651
H         60.73904        39.69868         2.62045
H         60.65549        42.09384         3.00185
H         60.62447        44.00262         2.71428
H         60.66014        46.45292         2.58897
H         59.43087        48.59891         2.38383
