         324
 CSIRO Nanostructure Databank - Neutral Graphene Oxide Data Set
C          1.20481         2.03959         0.22436
C          1.14653         3.38288        -0.06855
C          2.41813         1.34776         0.46760
C          2.37174         4.16389        -0.27249
C          1.08866         6.45297        -0.13237
C          1.07053         7.77805         0.10906
C          2.35462         5.68374        -0.29088
C          2.28660         8.53403         0.51832
C          1.14968        10.77122         0.69496
C          1.15049        12.15415         0.55562
C          2.31527        10.02880         0.45343
C          2.30398        12.84605         0.13082
C          1.10372        15.05839         0.02740
C          1.12419        16.45511        -0.00006
C          2.28735        14.30409         0.00821
C          2.34440        17.16584        -0.01477
C          2.39040        18.60995        -0.00063
C          3.64952         2.01992         0.51096
C          3.66595         3.44995         0.11579
C          4.87152         1.36362         0.76887
C          4.82802         4.25395         0.58792
C          3.64152         6.41305        -0.02928
C          3.58703         7.80683         0.52772
C          4.89670         5.68490         0.27567
C          4.88854         8.61414         0.58726
C          3.49815        10.71242         0.07491
C          3.49379        12.10847        -0.11265
C          4.74322         9.92614        -0.17681
C          4.71372        12.83198        -0.66264
C          3.54281        14.99940        -0.07456
C          3.55899        16.43944        -0.04420
C          4.73726        14.27943        -0.23681
C          4.80855        17.14796        -0.00562
C          3.57409        19.29228         0.01426
C          4.83914        18.60202         0.03189
C          6.13381         2.03094         0.78675
C          6.12299         3.51471         0.88447
C          7.33956         1.34883         0.76280
C          7.35946         4.28429         0.68625
C          6.09128         6.37412         0.36260
C          6.11616         7.82104         0.17765
C          7.33893         5.64566         0.50784
C          7.27921         8.47940        -0.15448
C          6.02938        10.64279        -0.47214
C          6.04013        12.11473        -0.44195
C          7.30822         9.91564        -0.31121
C          7.24370        12.76940        -0.33435
C          5.99342        15.00924        -0.30936
C          5.99737        16.43552         0.00471
C          7.30100        14.25505        -0.36517
C          7.24930        17.12026         0.34627
C          6.05855        19.27152        -0.00764
C          7.30675        18.57507         0.09960
C          8.63633         2.03424         0.72941
C          8.64716         3.54586         0.67373
C          9.85873         1.33574         0.33252
C          9.74666         4.19923        -0.14947
C          8.61968         6.45207         0.53851
C          8.54313         7.67848        -0.38528
C          9.85695         5.65838         0.18406
C          9.81217         8.50619        -0.29620
C          8.50729        10.60755        -0.43584
C          8.51797        12.05930        -0.40440
C          9.76444         9.87943        -0.47115
C          9.70867        12.78285        -0.41119
C          8.55449        14.91036         0.06967
C          8.54801        16.34779         0.47603
C          9.71788        14.17858        -0.03126
C          9.81529        17.12145         0.40910
C          8.54179        19.18068        -0.05694
C          9.80338        18.49106         0.08197
C         11.07063         2.00893         0.07646
C         11.05315         3.43966        -0.11719
C         12.29538         1.23683         0.19241
C         12.24684         4.19811        -0.15949
C         11.06191         6.35094         0.08570
C         11.06742         7.80833        -0.10023
C         12.28134         5.62151         0.00905
C         12.26716         8.49486        -0.18146
C         10.99488        10.62267        -0.80366
C         11.00995        12.15080        -0.84681
C         12.30093         9.88601        -0.63004
C         12.23623        12.66709         0.04610
C         10.98796        14.80558         0.41377
C         11.01015        16.29615         0.66941
C         12.27093        14.18086         0.03398
C         12.35088        16.89939         0.67027
C         10.98459        19.27450        -0.28093
C         12.26821        19.02470         0.16336
C         13.54785         1.60170        -0.30338
C         13.48539         3.58077        -0.47241
C         14.86626         1.11129        -0.00444
C         14.78936         4.18097        -0.14301
C         13.56710         6.32667         0.11118
C         13.56509         7.84733         0.06261
C         14.82789         5.66141        -0.24423
C         14.82149         8.51677        -0.32994
C         13.57075        10.63238        -0.48544
C         13.53736        12.02803        -0.40541
C         14.80243         9.94057        -0.48432
C         14.73768        12.75749        -0.49088
C         13.41406        14.90908        -0.17244
C         13.47407        16.34799         0.10724
C         14.65595        14.22761        -0.61728
C         14.70787        17.13487        -0.07968
C         13.55712        19.43344        -0.28709
C         14.70774        18.62361        -0.11143
C         16.05484         1.86101        -0.11460
C         16.03075         3.36290        -0.14566
C         17.30948         1.27565         0.17968
C         17.28237         4.10041        -0.51551
C         16.00410         6.35566        -0.39383
C         16.02539         7.80850        -0.40662
C         17.25823         5.61188        -0.66948
C         17.27636         8.53476        -0.49374
C         16.02465        10.67079        -0.52747
C         15.98625        12.09457        -0.57426
C         17.26676         9.96484        -0.50908
C         17.22664        12.83759        -0.59803
C         15.93406        15.01441        -0.69092
C         15.88284        16.47457        -0.39240
C         17.21393        14.25884        -0.59696
C         17.15511        17.20696        -0.52618
C         15.95659        19.30103        -0.11538
C         17.19106        18.63616        -0.13910
C         18.53879         1.98907         0.24877
C         18.57110         3.40287        -0.23130
C         19.74217         1.36245         0.56842
C         19.73873         4.25846         0.15102
C         18.55398         6.38759        -0.61454
C         18.51620         7.85964        -0.46070
C         19.80438         5.69547        -0.23070
C         19.74089         8.57603        -0.43206
C         18.49185        10.69464        -0.52753
C         18.46698        12.12881        -0.56421
C         19.73700        10.00392        -0.49646
C         19.70494        12.84077        -0.58649
C         18.43579        14.95239        -0.56009
C         18.44170        16.44306        -0.58226
C         19.66127        14.25822        -0.60071
C         19.66407        17.08574         0.04808
C         18.42259        19.28698         0.04780
C         19.66380        18.59712         0.06000
C         21.01091         2.04583         0.51240
C         20.98153         3.53585         0.59153
C         22.20542         1.37707         0.40467
C         22.26175         4.31616         0.62005
C         20.95968         6.43770        -0.09441
C         20.98676         7.86975        -0.33972
C         22.23605         5.79655         0.30682
C         22.21300         8.57829        -0.40939
C         20.97923        10.72157        -0.55428
C         20.96553        12.14207        -0.62004
C         22.22101        10.00154        -0.54620
C         22.21098        12.87232        -0.70319
C         20.91953        14.99783        -0.78296
C         20.92954        16.50391        -0.54550
C         22.18696        14.27226        -0.75842
C         22.18910        17.16062        -0.17997
C         20.88145        19.23446         0.25596
C         22.13799        18.52490         0.25559
C         23.44441         2.10433        -0.04572
C         23.53501         3.53416         0.47321
C         24.75119         1.39005         0.13276
C         24.78133         4.25755         0.07285
C         23.47221         6.47679        -0.14402
C         23.46919         7.84113        -0.42599
C         24.66603         5.67240        -0.39073
C         24.71664         8.55781        -0.62158
C         23.46648        10.71678        -0.63335
C         23.47109        12.14632        -0.71812
C         24.70507         9.99835        -0.63804
C         24.71242        12.84167        -0.77684
C         23.41370        15.08106        -0.85180
C         23.40473        16.47703        -0.32918
C         24.74212        14.32898        -0.86960
C         24.60860        17.10808         0.07114
C         23.34075        19.16829         0.56769
C         24.57444        18.47160         0.51685
C         25.95325         2.06543        -0.10651
C         25.94528         3.47087        -0.37786
C         27.21892         1.36469         0.03718
C         27.17913         4.20296        -0.63536
C         25.97121         6.41019        -0.74275
C         25.94597         7.87312        -0.67614
C         27.22248         5.67753        -0.54739
C         27.20652         8.55605        -0.68910
C         25.94385        10.70287        -0.64956
C         25.92924        12.13083        -0.69891
C         27.20093         9.99628        -0.67957
C         27.21445        12.84642        -0.70756
C         25.92149        15.05572        -0.36537
C         25.86122        16.39024         0.07326
C         27.20902        14.39168        -0.45392
C         27.05470        17.04216         0.53046
C         25.77794        19.11167         0.89949
C         27.00470        18.42669         0.91570
C         28.42214         2.02112         0.04814
C         28.48099         3.44951        -0.33228
C         29.69626         1.35692         0.27525
C         29.62440         4.26988         0.14221
C         28.42782         6.38430        -0.46624
C         28.41411         7.81162        -0.62833
C         29.68295         5.69960        -0.22023
C         29.71172         8.47654        -0.78381
C         28.42530        10.71097        -0.58536
C         28.44889        12.11015        -0.39864
C         29.71446        10.03288        -0.75526
C         29.66081        12.79900        -0.12478
C         28.36926        15.00309         0.18675
C         28.28169        16.30919         0.63668
C         29.60660        14.18788         0.48699
C         29.49160        16.94454         1.29975
C         28.20377        19.10833         1.28323
C         29.43720        18.45937         1.35071
C         30.86650         2.03550         0.37744
C         30.90384         3.51143         0.47183
C         32.14679         4.26945         0.29760
C         30.90913         6.36811        -0.15263
C         30.95960         7.79070        -0.41623
C         32.12756         5.60811         0.06463
C         32.12648         8.54921        -0.32847
C         30.95933        10.71839        -0.38468
C         30.89907        12.12405        -0.08407
C         32.13124         9.95814        -0.32487
C         32.11402        12.88311         0.15307
C         30.87175        15.00416         0.26206
C         30.80645        16.45019         0.70089
C         32.12658        14.23582         0.24776
C         32.00698        17.21046         1.08446
C         30.63075        19.14877         1.61794
C         31.88932        18.49557         1.55097
O         13.67191         7.13930         1.33986
O          2.83354         7.92925         1.77660
O         13.50359         2.56535        -1.39487
O         28.07547         3.68689        -1.69787
O          5.20483         9.98950        -1.54417
O         12.38699        18.15163         1.26826
O         17.90879        17.00805        -1.80199
O         27.42698        13.79589        -1.78942
O          6.74566        14.77838        -1.63812
O         24.49164         3.90308         1.49226
O         30.00595         4.01816         1.52906
O          3.30038         3.63734        -1.28121
O         24.16599        14.89055        -2.09584
O          3.15014         6.26189        -1.39652
O         11.67839        10.05993        -1.98013
O         20.84286        16.00164        -1.88937
O         29.80488         9.27694        -2.00143
O         25.12082         5.80457        -1.77587
O         15.16746        14.69127        -1.91694
O         20.02821         4.03341         1.57825
O         30.75637        16.07524        -0.71759
O         10.86728        15.32362         1.77725
O          7.73628        16.65051         1.66922
O         15.43176         3.79838         1.14302
O         17.92928         6.00517        -1.90626
O          5.24316         3.98039         1.96600
O         22.29851         5.29641         1.69194
O         11.98984        12.22515         1.33148
O          8.96837         2.93741         1.93541
O         18.05357         3.49198        -1.59452
O         29.51097        16.51942         2.69360
H         28.74292        16.92802         3.14409
O         19.67108        16.65808         1.44778
H         19.09523        17.26356         1.96042
O          4.54702        12.88839        -2.12127
H          5.29365        13.43531        -2.46212
O         11.25645        12.58299        -2.18744
H         11.67084        11.82158        -2.66222
O         29.58930        13.92386         1.92923
H         28.80956        13.36722         2.13390
O          8.77483         6.96123         1.88499
H          8.79240         6.20302         2.50587
O          5.12046         9.01008         1.96195
H          4.33534         8.71617         2.48558
O          8.50539         7.12495        -1.73675
H          8.40256         7.86596        -2.37139
O         23.26208         2.31510        -1.50361
H         23.24857         1.43459        -1.93537
O          9.23361         4.15342        -1.54079
H          9.05120         5.07887        -1.83226
H          0.26326         1.47918         0.31779
H          0.16979         3.88331        -0.12854
H          2.38309         0.27384         0.69962
H          0.14191         5.93659        -0.35160
H          0.11031         8.31527         0.10159
H          0.22872        10.25931         1.00662
H          0.22846        12.70787         0.77711
H          0.12940        14.55116         0.05478
H          0.17619        17.01181         0.01033
H          1.43781        19.15980         0.00085
H          4.85888         0.27033         0.89653
H          3.57665        20.39211         0.02667
H          7.33531         0.25372         0.64908
H          6.07220        20.36849        -0.09612
H          9.85698         0.23567         0.36914
H          8.57648        20.25921        -0.27360
H         12.24324         0.32935         0.81303
H         10.82556        20.07887        -1.01522
H         14.94498         0.08120         0.37594
H         13.69646        20.43675        -0.71986
H         17.33344         0.19744         0.40069
H         15.94989        20.39785        -0.02268
H         19.74511         0.27870         0.75957
H         18.42607        20.37558         0.21123
H         22.20462         0.27639         0.36684
H         20.90450        20.32685         0.38741
H         24.76321         0.31705         0.37497
H         23.33403        20.22573         0.87002
H         27.18582         0.28866         0.26617
H         25.74731        20.16528         1.21354
H         29.69668         0.25697         0.30620
H         28.15439        20.19213         1.47009
H         31.81661         1.48804         0.46643
H         33.10349         3.72693         0.32479
H         33.08878         6.12978        -0.03917
H         33.08762         8.04848        -0.14873
H         33.09569        10.45359        -0.15040
H         33.07370        12.34888         0.15305
H         33.08370        14.77558         0.28119
H         33.00118        16.77823         0.90324
H         30.59634        20.23124         1.80949
H         32.79507        19.06956         1.79362
