         349
 CSIRO Nanostructure Databank - Neutral Graphene Oxide Data Set
C          1.24877         3.48607        -0.78297
C          0.03730         4.15054        -0.88912
C          1.15137         6.30908        -0.69237
C         -0.01768         5.55474        -0.82962
C          1.13601         7.81633        -0.48287
C         -0.07337         8.55298        -1.01446
C          1.10624        10.61294        -0.41523
C         -0.07620         9.89320        -0.96689
C          1.10221        12.10068        -0.17299
C         -0.05813        12.94569        -0.54923
C          1.08693        14.89917         0.47424
C         -0.03773        14.26442        -0.31680
C          1.20066        16.38702         0.24026
C          0.03384        17.20308         0.07457
C          1.47899        19.13723        -0.47212
C          0.12468        18.54127        -0.18615
C          1.55896        20.64728        -0.46140
C          0.59424        21.34480        -1.21255
C          1.70298        23.46079        -0.74692
C          0.65909        22.71980        -1.34749
C          1.73629        24.90612        -0.82320
C          0.78071        25.62285        -1.57726
C          1.70288        27.74659        -0.83118
C          0.77650        27.00625        -1.60228
C          1.66126        29.21131        -0.95950
C          3.70561         3.53292        -0.52247
C          2.45496         4.21430        -0.60935
C          3.62349         6.40391        -0.43527
C          2.39242         5.64097        -0.56510
C          3.64557         7.75424        -0.66045
C          2.39034         8.49714        -1.06083
C          3.58862        10.68075        -0.56277
C          2.41883         9.95974        -0.63261
C          3.61531        12.09605        -0.23963
C          2.40530        12.81025        -0.06640
C          3.63729        14.84993         0.45880
C          2.40589        14.18769         0.22191
C          3.65835        16.27657         0.77312
C          2.44168        17.03255         0.45855
C          3.58511        19.15273         1.02960
C          2.52223        18.42735         0.33718
C          3.64066        20.65255         0.93593
C          2.62624        21.35807         0.10997
C          3.79779        23.50445         0.61068
C          2.70773        22.77036        -0.01830
C          3.76197        24.92352         0.61636
C          2.71479        25.62643        -0.06957
C          3.49391        27.76715         0.97176
C          2.63129        27.05601        -0.02908
C          4.10373        29.49988        -0.78261
C          2.74237        30.02169        -0.97244
C          6.15850         3.55215        -0.32635
C          4.91845         4.20948        -0.31566
C          6.17699         6.43229        -0.08165
C          4.87334         5.67589        -0.09755
C          6.18432         7.85887        -0.46662
C          4.91310         8.48838        -0.81425
C          6.15673        10.72414        -0.62746
C          4.88312        10.01036        -0.83510
C          6.10918        12.11726        -0.39153
C          4.86605        12.78761        -0.13351
C          6.11410        14.78616         0.71368
C          4.84857        14.14332         0.30850
C          6.11083        16.22314         1.19373
C          4.81672        16.93221         1.13576
C          6.07384        19.14747         1.74194
C          4.79729        18.38284         1.46025
C          6.08085        20.62140         1.54149
C          4.93293        21.33914         1.20405
C          6.09421        23.48930         1.63646
C          4.89844        22.76776         1.15653
C          6.04401        24.97280         1.73466
C          4.71579        25.71155         1.52764
C          6.04808        27.86156         1.01578
C          4.87192        27.17041         1.10530
C          6.14953        29.27955         0.60817
C          4.93905        29.99750         0.16689
C          8.63133         3.55890        -0.38442
C          7.40766         4.24724        -0.30927
C          8.63116         6.39049        -0.35202
C          7.43819         5.68357        -0.25528
C          8.62945         7.87538        -0.06300
C          7.36752         8.58105        -0.51993
C          8.68777        10.69568        -0.97755
C          7.37340        10.00209        -0.66789
C          8.68455        12.20418        -0.72236
C          7.36467        12.89654        -0.49736
C          8.61923        15.08636         0.12232
C          7.34762        14.31144         0.01217
C          8.58345        16.37947         0.87760
C          7.36740        17.00520         1.14775
C          8.62089        19.16096         1.36653
C          7.40960        18.38053         1.81634
C          8.53480        20.62351         1.04848
C          7.40382        21.30297         1.83457
C          8.57573        23.46221         1.39841
C          7.40144        22.78712         1.54324
C          8.55073        24.92984         1.16708
C          7.34094        25.71525         1.58343
C          8.62758        27.84380         0.96955
C          7.33967        27.18411         1.32556
C          8.65068        29.35568         1.04124
C          7.32485        29.95809         0.66871
C         11.09985         3.56227        -0.47295
C          9.86090         4.25543        -0.46893
C         11.09226         6.39868        -0.66272
C          9.86252         5.69157        -0.49182
C         11.09936         7.86312        -0.63825
C          9.90379         8.58102        -0.44806
C         11.14857        10.68957        -0.34729
C          9.92708         9.98476        -0.48491
C         11.10209        12.15197        -0.16061
C          9.94525        12.88021        -0.29019
C         11.19168        15.06881         0.32168
C          9.95061        14.42622        -0.33535
C         11.01485        16.19904         1.34010
C          9.80667        17.05794         1.12320
C         11.10695        19.18330         1.23611
C          9.82853        18.47281         1.28170
C         11.07811        20.63913         1.17124
C          9.85804        21.35119         1.18187
C         11.07996        23.48280         1.16440
C          9.86253        22.76384         1.26391
C         11.11651        24.99442         1.34073
C          9.82078        25.67022         0.92651
C         11.11056        27.90726         0.82160
C          9.79456        27.15811         0.92072
C         10.92735        29.19606         0.03246
C          9.75998        29.89941         0.18591
C         13.57464         3.56302        -0.47293
C         12.31227         4.25062        -0.59688
C         13.53070         6.36695        -1.14972
C         12.28065         5.66952        -0.80027
C         13.46207         7.85618        -1.36588
C         12.30763         8.59645        -0.79468
C         13.72562        10.65660        -0.21018
C         12.37153         9.96413        -0.41338
C         13.60298        11.99820         0.49292
C         12.34019        12.77802         0.37750
C         13.64221        14.82130         1.20922
C         12.42975        14.25911         0.53470
C         13.60385        16.26836         1.56692
C         12.29894        17.00517         1.55395
C         13.57453        19.16889         1.26586
C         12.30397        18.47946         1.31490
C         13.55161        20.63269         1.37612
C         12.29493        21.36511         1.18932
C         13.56182        23.49378         0.84929
C         12.30314        22.77693         1.08501
C         13.47029        24.90834         0.50158
C         12.31862        25.65072         0.68958
C         13.31793        27.66195        -0.34259
C         12.25738        27.04668         0.32646
C         13.21850        29.02116        -0.86160
C         12.00598        29.71763        -0.73322
C         16.03984         3.50424        -0.39894
C         14.79338         4.21708        -0.45492
C         16.12669         6.46731        -0.55409
C         14.84014         5.66425        -0.81561
C         16.03885         7.72707         0.32802
C         14.86969         8.44341         0.64843
C         16.11248        10.56971         0.60874
C         14.85518         9.85986         0.48013
C         16.06319        12.02770         0.75405
C         14.88400        12.72638         0.72643
C         16.12447        14.85855         1.10012
C         14.84764        14.15023         1.07162
C         16.15027        16.33179         1.22408
C         14.87450        17.06241         1.46650
C         16.02635        19.21224         0.83682
C         14.80723        18.51514         1.19663
C         16.02546        20.60477         0.74748
C         14.87556        21.40136         1.18932
C         16.08124        23.61171         0.77385
C         14.77869        22.83522         0.83294
C         15.95553        24.85867        -0.08840
C         14.63343        25.54201        -0.14853
C         15.68305        27.62643        -1.00329
C         14.56673        26.97046        -0.51416
C         15.55909        28.92462        -1.63344
C         14.30819        29.58454        -1.55823
C         18.51939         3.47384        -0.27652
C         17.26696         4.15150        -0.31311
C         18.59274         6.31132        -0.04699
C         17.24541         5.60515         0.08171
C         18.61592         7.77956         0.27134
C         17.31676         8.37865         0.79219
C         18.58696        10.52601         1.25329
C         17.30620         9.87883         0.77338
C         18.55982        11.98366         0.83252
C         17.31235        12.72297         1.25696
C         18.56116        14.90698         0.69509
C         17.32024        14.19555         0.94429
C         18.51936        16.33073         0.48288
C         17.31542        17.06261         0.69115
C         18.39193        19.11370        -0.04877
C         17.24210        18.45541         0.48820
C         18.32391        20.54138        -0.41990
C         17.11346        21.31649         0.04655
C         18.46498        23.45772        -0.37348
C         17.29819        22.78620         0.30237
C         18.43573        24.91261        -0.64694
C         17.20784        25.66576        -0.29225
C         18.15022        27.64456        -1.58561
C         17.03839        27.06017        -0.84877
C         17.92842        28.79726        -2.36858
C         16.65283        29.45309        -2.33559
C         19.72807         4.11932        -0.01432
C         21.02020         6.23155         0.38739
C         19.82226         5.52234         0.13642
C         21.06128         7.60979         0.59765
C         19.89509         8.42906         0.66029
C         21.08124        10.61058         0.91994
C         19.88164         9.81632         0.86626
C         21.07850        11.97270         0.82791
C         19.83220        12.73093         0.60926
C         20.96021        14.94730         0.26940
C         19.78745        14.22021         0.57406
C         20.92116        16.30671         0.02220
C         19.70094        17.02665         0.09136
C         20.74993        19.13185        -0.75496
C         19.60973        18.42649        -0.22656
C         20.72870        20.47139        -1.03307
C         19.56156        21.26485        -0.80667
C         20.60325        23.36948        -1.63125
C         19.53595        22.64863        -1.00676
C         20.59811        24.73679        -1.73992
C         19.49413        25.53417        -1.27447
C         20.53303        27.61080        -2.34258
C         19.52843        27.06685        -1.36886
C         20.25601        28.68250        -3.15274
C         18.99222        29.31209        -3.15882
O         12.25836        15.13768        -0.65593
O         18.45942        23.11046         1.12073
O         18.69877         7.32295        -1.09814
O          3.05368        28.62830         1.71429
O         17.37994        26.78464         0.62337
O          7.71704        15.25757        -1.04260
O          7.49799        26.64696         2.70471
O         14.28452         8.40635        -2.10627
O          4.91358         9.24540        -2.09766
O         14.35342        21.10280         2.51540
O          3.04095        20.01243         2.11198
O         12.71319        12.07723         1.64141
O          5.18643        18.69911         2.83747
O          9.06107        25.16069        -0.21534
O         14.34913         5.75739        -2.19468
O         15.78046        16.76784         2.59650
O          0.87621        11.16107         0.93950
O         17.21947        20.90206        -1.35397
O         15.16635        24.69372        -1.28981
O          5.47002         6.11961         1.18003
O          6.20789        15.07069         2.13839
O         18.99282        12.18815        -0.52305
O          5.98158        24.16949         2.96783
O          7.98994        12.86840        -1.84215
O         12.91730        16.62284         2.83199
O          8.96858        29.68870         2.44008
H          8.31605        29.21922         3.00466
O         11.19411        25.23547         2.77380
H         12.08637        24.97616         3.08599
O          2.29981         8.45455        -2.50672
H          3.16920         8.77796        -2.84771
O         10.70772        15.46770         2.56442
H         11.37872        15.73836         3.23973
O         17.36699         8.06888         2.25820
H         17.15442         7.09984         2.33476
O         16.54575         6.91434        -1.84489
H         15.75602         7.29086        -2.30901
O          1.77137        18.78502        -1.88965
H          1.64078        17.81580        -1.97598
O         19.96520        27.51048        -0.03381
H         19.20677        27.33400         0.57775
O          1.21088         8.02286         0.95077
H          0.36999         7.72406         1.35359
O          7.64423        18.06371         3.22050
H          6.75670        17.90264         3.62123
O          8.13166        20.71898        -0.35859
H          8.86764        20.38171        -0.91197
O         10.08451        14.72250        -1.73727
H          9.22525        14.47775        -2.15895
O         18.59425        10.46514         2.70642
H         18.22139         9.58749         2.96151
O          8.60980         7.97764         1.40671
H          7.82715         7.47823         1.72791
O          8.83207        10.52675        -2.42720
H          8.32569        11.26437        -2.84310
O          4.02305        25.76870         2.79836
H          4.43078        25.07840         3.37561
O          0.75891        14.71203         1.88645
H          0.71825        13.74583         2.05408
O         11.47160        28.30615         2.17601
H         10.72363        28.86043         2.51542
O         13.75674         7.75860         1.06307
H         13.08261         8.38443         1.39961
O         17.26788        12.65202         2.71141
H         16.47864        13.14704         3.01757
O         16.32794        24.05831         2.12301
H         17.29818        23.96762         2.28713
O          4.47556        28.41448        -1.53402
H          3.75735        28.18862        -2.15803
O          7.70443        21.12868         3.23598
H          7.00177        21.56741         3.76014
O         16.92116         5.54910         1.51950
H         17.42662         4.80578         1.91296
O         14.24359        11.00860        -1.51320
H         14.37157        10.16779        -2.02519
H          1.28547         2.38814        -0.82521
H         -0.89327         3.57944        -1.01352
H         -0.99625         6.05075        -0.89735
H         -0.93619         8.00819        -1.42527
H         -0.95075        10.46685        -1.30880
H         -0.92438        12.47974        -1.04243
H         -0.89940        14.88148        -0.61123
H         -0.95814        16.74684         0.20402
H         -0.78136        19.15312        -0.29980
H         -0.21702        20.78784        -1.70088
H         -0.12350        23.22845        -1.92466
H          0.02986        25.08733        -2.17226
H          0.04296        27.54143        -2.22170
H          0.66500        29.65544        -1.11458
H          3.71758         2.43867        -0.63997
H          2.60095        31.11272        -1.01219
H          6.17522         2.45746        -0.43796
H          4.63920        30.90036         0.71540
H          8.63675         2.45907        -0.38123
H          7.32985        31.02205         0.38534
H         11.10379         2.46800        -0.36192
H          9.63086        30.87531        -0.30728
H         13.55044         2.47354        -0.31821
H         11.89384        30.70338        -1.20987
H         16.00902         2.40517        -0.46162
H         14.19509        30.57757        -2.01763
H         18.52430         2.38662        -0.44453
H         16.53817        30.40513        -2.87393
H         20.64656         3.51757         0.05315
H         21.96226         5.66479         0.43641
H         22.04037         8.06780         0.79966
H         22.05080        10.09419         0.99077
H         22.03149        12.51686         0.89470
H         21.91928        14.41859         0.18331
H         21.85590        16.81977        -0.23780
H         21.68185        18.58019        -0.93306
H         21.64571        20.95252        -1.39918
H         21.44658        22.81025        -2.05935
H         21.44301        25.22945        -2.23821
H         21.55919        27.21958        -2.30712
H         21.04786        29.08440        -3.80194
H         18.82432        30.20318        -3.77886
