         324
 CSIRO Nanostructure Databank - Neutral Graphene Oxide Data Set
C          1.07452         2.14511         1.02747
C          1.03205         3.52570         0.80148
C          2.27504         1.44205         0.96801
C          2.21824         4.23401         0.52630
C          1.10727         6.35289        -0.25385
C          1.15205         7.67463        -0.67418
C          2.24909         5.67553         0.24702
C          2.31230         8.46277        -0.44768
C          1.37584        10.60063        -1.39527
C          1.48458        11.89554        -1.79415
C          2.48420         9.84041        -0.85995
C          2.78931        12.57232        -1.89668
C          1.60887        14.86277        -2.32058
C          1.57310        16.20578        -2.23799
C          2.84767        14.08049        -2.03260
C          2.63777        16.98607        -1.55538
C          2.81647        18.42658        -1.83121
C          3.48735         2.11474         0.67820
C          3.43510         3.52146         0.48368
C          4.74179         1.40912         0.65515
C          4.65509         4.25225         0.10655
C          3.45698         6.40014         0.42546
C          3.38595         7.83052         0.24347
C          4.73115         5.69299         0.43480
C          4.42506         8.66757         0.69760
C          3.72397        10.49573        -0.67357
C          3.97161        11.82737        -1.26543
C          4.74320         9.90148         0.13157
C          5.17241        12.58754        -0.75320
C          4.02149        14.81755        -1.43962
C          3.83847        16.25156        -1.03835
C          5.19752        14.10012        -0.82700
C          5.05392        17.00362        -0.66633
C          3.97428        19.06494        -1.54414
C          5.10936        18.41126        -0.89676
C          5.95857         2.02813         0.36574
C          5.94293         3.45446        -0.04266
C          7.21162         1.37619         0.53599
C          7.20525         4.19169        -0.04906
C          6.01564         6.27279         0.49745
C          6.24798         7.59513         0.98963
C          7.22535         5.57320         0.09849
C          7.35063         8.37940         0.73160
C          6.01754        10.56392         0.43376
C          6.11293        11.89939         0.16319
C          7.24939         9.86760         1.08648
C          7.24107        12.68585         0.73201
C          6.12720        14.89173         0.01463
C          6.11440        16.28811        -0.04530
C          7.21785        14.17497         0.71518
C          7.18481        17.06659         0.61772
C          6.26685        19.12708        -0.60072
C          7.29765        18.54702         0.26170
C          8.45003         2.01146         0.28313
C          8.43139         3.39733        -0.24532
C          9.69493         1.40123         0.46471
C          9.70903         4.13258        -0.46530
C          8.44885         6.33450        -0.05746
C          8.51506         7.70750         0.21286
C          9.65017         5.63082        -0.56312
C          9.76661         8.44005         0.08544
C          8.52763        10.61201         0.71885
C          8.54959        11.98848         0.75230
C          9.78832         9.85808         0.54678
C          9.75963        12.78141         0.65475
C          8.49525        14.89791         0.89321
C          8.42084        16.35310         1.10085
C          9.73297        14.22135         0.80610
C          9.70209        17.12740         1.31824
C          8.63642        19.16068         0.34705
C          9.73573        18.53224         0.83071
C         10.95422         2.08732         0.32586
C         10.98484         3.49438        -0.07312
C         12.13904         1.40323         0.58630
C         12.16388         4.20735        -0.16923
C         10.94035         6.38717        -0.64927
C         10.92768         7.82812        -0.30733
C         12.22609         5.63681        -0.49852
C         12.12769         8.61943        -0.78375
C         11.04618        10.65687         0.36241
C         10.99423        12.13563         0.41960
C         12.25784        10.00851        -0.18635
C         12.17889        12.87455         0.29999
C         10.97597        14.94154         0.88293
C         11.01338        16.34219         1.51136
C         12.18529        14.26419         0.61280
C         12.27325        17.12138         1.17595
C         11.02110        19.32198         0.93440
C         12.30281        18.50753         0.95853
C         13.43096         2.08214         0.66803
C         13.42096         3.55589         0.25244
C         14.70769         1.33837         0.69920
C         14.70426         4.13828        -0.24150
C         13.40577         6.33471        -0.53235
C         13.42980         7.81413        -0.77139
C         14.75882         5.63785        -0.59775
C         14.70544         8.57479        -0.55658
C         13.43059        10.71929        -0.21760
C         13.43299        12.23278        -0.23215
C         14.69865        10.04334        -0.33101
C         14.71387        12.85173         0.27067
C         13.45967        14.94377         0.75349
C         13.47255        16.31324         1.13053
C         14.70551        14.23555         0.62679
C         14.72235        16.87548         1.46354
C         13.47048        19.27665         0.66450
C         14.75777        18.93221         1.12902
C         15.93682         1.98509         0.60271
C         15.94563         3.39476         0.10961
C         17.20321         1.35089         0.68426
C         17.17529         4.17593         0.40842
C         15.84067         6.38226         0.17729
C         15.87131         7.85842         0.04383
C         17.14560         5.67555         0.44613
C         17.16785         8.57110         0.03604
C         15.89643        10.70578        -0.09326
C         15.91432        12.13784         0.16883
C         17.15426         9.97140        -0.04648
C         17.17371        12.80463         0.35968
C         15.95445        14.89898         0.81605
C         15.97122        16.29778         1.14541
C         17.18865        14.19176         0.67532
C         17.16885        17.06757         1.17614
C         16.04180        19.28533         0.69601
C         17.21478        18.49886         0.99897
C         18.45192         2.04653         0.51498
C         18.44978         3.46455         0.40048
C         19.69483         1.35821         0.44338
C         19.66007         4.26385         0.52886
C         18.41560         6.41292         0.22763
C         18.38687         7.83328         0.05960
C         19.63110         5.71946         0.23657
C         19.61894         8.53556        -0.09369
C         18.39146        10.68385        -0.06130
C         18.40827        12.11617         0.16737
C         19.58768         9.95425        -0.18867
C         19.62916        12.80822         0.35319
C         18.42643        14.85433         0.93557
C         18.42917        16.29945         1.28148
C         19.63492        14.15754         0.79646
C         19.74959        17.03677         1.20768
C         18.47092        19.14196         0.83977
C         19.72576        18.47399         0.84822
C         20.93312         2.02964         0.20575
C         20.98694         3.50381         0.39551
C         22.08090         1.35394        -0.16242
C         22.15588         4.26761        -0.05268
C         20.86341         6.40869        -0.00087
C         20.85555         7.81748        -0.16201
C         22.10648         5.67520        -0.12335
C         22.08978         8.53922        -0.40527
C         20.83470        10.66723        -0.44423
C         20.88952        12.17504        -0.08350
C         22.08628         9.93055        -0.49647
C         22.20528        12.72827         0.26288
C         20.93483        14.79619         1.16041
C         21.01125        16.27648         1.02110
C         22.22100        14.01434         0.98636
C         22.17004        16.93679         0.73377
C         20.89684        19.09754         0.45424
C         22.14601        18.32949         0.13855
C         23.32690         2.04564        -0.64682
C         23.35808         3.53638        -0.36053
C         24.61235         1.37164        -0.21772
C         24.55412         4.20220        -0.47003
C         23.30928         6.41000        -0.41269
C         23.30938         7.78909        -0.57369
C         24.58709         5.66428        -0.31928
C         24.54447         8.50097        -1.00360
C         23.29943        10.74210        -0.75737
C         23.38003        12.10879        -0.16853
C         24.58196        10.00083        -1.00585
C         24.67853        12.71372        -0.03342
C         23.51752        14.76648         1.00757
C         23.48313        16.27429         0.87583
C         24.77552        14.03931         0.62938
C         24.72175        17.00386         0.52787
C         23.41094        19.09287         0.39001
C         24.64661        18.44487         0.44041
C         25.82719         2.02455        -0.33763
C         25.81608         3.46623        -0.70509
C         27.08976         1.38865        -0.16125
C         27.13565         4.21372        -0.73626
C         25.88414         6.38727        -0.45477
C         25.86098         7.79494        -0.92674
C         27.16555         5.67830        -0.62351
C         27.12619         8.54957        -0.83316
C         25.87315        10.68368        -0.78637
C         25.86950        12.07487        -0.44901
C         27.08091         9.95663        -0.87171
C         27.14927        12.79858        -0.48095
C         26.02771        14.86191         0.46001
C         25.95058        16.35285         0.46606
C         27.18549        14.22768        -0.21328
C         27.17975        17.09113         0.36831
C         25.86926        19.16795         0.33757
C         27.12469        18.54221         0.30597
C         28.32293         2.08313        -0.21613
C         28.37136         3.49085        -0.42367
C         29.56485         1.39589         0.01224
C         29.57841         4.22463        -0.29188
C         28.34757         6.38770        -0.53441
C         28.34624         7.84958        -0.60096
C         29.60035         5.66349        -0.36435
C         29.56129         8.56765        -0.46341
C         28.36138        10.67963        -1.16428
C         28.32231        12.13276        -0.78418
C         29.60923         9.96225        -0.69481
C         29.59212        12.84513        -1.00457
C         28.34676        14.96882        -0.30887
C         28.38371        16.33746         0.17036
C         29.60703        14.36192        -0.78222
C         29.65332        16.89397         0.39340
C         28.26397        19.38516         0.00051
C         29.56756        19.03571         0.30181
C         30.74818         2.08301         0.08499
C         30.78911         3.51099        -0.03014
C         31.98630         4.23853         0.14474
C         30.79787         6.35840        -0.12649
C         30.79148         7.86621         0.07609
C         31.98078         5.62695         0.12050
C         32.05074         8.56739        -0.36695
C         30.83330        10.66954        -0.71716
C         30.86525        12.10292        -0.88589
C         32.05731         9.89153        -0.64115
C         32.04287        12.85106        -0.85886
C         30.91090        15.01366        -0.53190
C         30.89799        16.40189        -0.10104
C         32.06351        14.25999        -0.70781
C         31.99895        17.27567        -0.20679
C         30.81229        19.50794        -0.21286
C         31.93737        18.69109        -0.27337
O         14.73860        18.03464         2.22923
O          3.77449        11.86979        -2.70822
O         21.54827        14.08627         2.28789
O         23.82745        10.60470        -2.12197
O          9.02606         3.48635        -1.59742
O          3.93772        14.58794        -2.87720
O          6.72491        18.07553         1.54410
O         10.72150        10.04288         1.68168
O         13.44151         3.21104         1.65977
O         29.52397        13.78703        -2.12913
O         15.42307         3.38763        -1.27380
O         25.34382         6.14566         0.89743
O          5.21402         8.17371         1.74590
O         25.75834        14.13189         1.71516
O         20.48734         3.92169         1.70063
O          8.79950        16.85980         2.43740
O          5.12990         3.81888        -1.21824
O         23.64623        15.59153         2.17968
O          6.80935        13.40860         1.94946
O         20.77150        11.71440        -1.46909
O         19.16243        16.68696         2.50517
O         10.16605         6.09083        -1.86345
O          5.92914        13.27604        -1.80410
O         25.16060         7.93054        -2.21490
O         26.45435         3.75735        -1.99416
O          2.71961        16.55977        -0.13354
O         29.70917        17.99229         1.25104
O         15.44908         7.20254         1.30824
O         14.29945         8.18246        -1.91189
O         17.06759         4.92781         1.69873
O         11.80952         8.89342        -2.18278
H         12.66021         8.85063        -2.68082
O         13.42466        12.56555        -1.67613
H         14.19522        12.11657        -2.08563
O         28.46929        10.66773        -2.63424
H         27.66100        11.08929        -2.99727
O         23.28946         1.91981        -2.11746
H         24.12238         2.30426        -2.46857
O          7.12389         9.98706         2.52042
H          6.32085         9.48333         2.78410
O         15.21767         5.73682        -1.96495
H         14.67642         5.14160        -2.52485
O         30.73989         8.02885         1.54204
H         30.76585         8.99087         1.73121
O         11.13994        16.05492         2.93388
H         10.22161        16.02436         3.29841
O         11.07157        20.31788        -0.09455
H         11.11833        19.86518        -0.96127
O         22.11884        18.08968        -1.33955
H         21.18826        17.90854        -1.59285
H          0.14216         1.60745         1.24995
H          0.07005         4.05441         0.85061
H          2.28703         0.35626         1.13968
H          0.18237         5.78038        -0.41344
H          0.27390         8.10766        -1.17234
H          0.37986        10.13551        -1.39020
H          0.57448        12.45046        -2.06231
H          0.75702        14.33064        -2.76924
H          0.68346        16.75359        -2.58505
H          2.00121        18.96313        -2.33960
H          4.73785         0.34278         0.92841
H          4.07925        20.13425        -1.78129
H          7.21494         0.33511         0.89423
H          6.37449        20.16871        -0.93835
H          9.72590         0.35435         0.80372
H          8.74832        20.19400        -0.01939
H         12.10736         0.31436         0.74255
H         10.98021        19.88583         1.90808
H         14.66918         0.25283         0.87510
H         13.32506        20.21888         0.11335
H         17.23990         0.27201         0.89685
H         16.17549        20.17866         0.06807
H         19.69010         0.25813         0.44533
H         18.46852        20.21611         0.60054
H         22.04095         0.26005        -0.28238
H         20.86933        20.16193         0.17311
H         24.59156         0.29866         0.02743
H         23.37848        20.19213         0.35276
H         27.10522         0.30984         0.05574
H         25.82115        20.26292         0.24244
H         29.54878         0.30385         0.13990
H         28.06785        20.31844        -0.54829
H         31.68928         1.54365         0.26667
H         32.92140         3.69749         0.34915
H         32.91799         6.16028         0.33034
H         33.00407         8.02037        -0.34808
H         33.01222        10.38391        -0.87375
H         33.01378        12.33661        -0.84495
H         33.04393        14.74388        -0.59142
H         32.96592        16.83326        -0.49158
H         30.87957        20.53142        -0.61005
H         32.87363        19.17830        -0.58930
