         261
 CSIRO Nanostructure Databank - Neutral Graphene Oxide Data Set
C        -11.13670         0.95098        -0.16585
C         -9.94635         1.74680         0.20984
C         -8.70985         1.02009         0.72968
C         -7.36856         1.69331         0.54268
C         -6.13175         0.84060         0.47576
C         -5.03096         1.26951        -0.51403
C         -3.67713         0.61182        -0.25491
C         -2.56281         1.38161         0.37538
C         -1.42075         0.61421         0.97035
C         -0.14408         1.33103         1.35414
C          1.11883         0.72727         0.75679
C          2.37721         1.53295         0.64412
C          3.64674         0.92797         0.04359
C          4.96546         1.43400         0.56270
C          6.26101         0.71305         0.18118
C          7.55617         1.33395         0.62765
C          8.86999         0.70892         0.24931
C         10.15773         1.45196         0.40731
C         11.37500         0.81797        -0.16453
C         -9.80539         3.06914        -0.41408
C         -8.62567         3.79099        -0.40971
C         -7.35344         3.19678         0.15365
C         -6.16488         3.63943        -0.69614
C         -4.91173         2.80725        -0.78011
C         -3.56273         3.54463        -0.66830
C         -2.38719         2.83438         0.02604
C         -1.28568         3.57654         0.74977
C         -0.17983         2.82620         1.50599
C          1.16797         3.53988         1.72176
C          2.45635         2.81777         1.42015
C          3.75814         3.58397         1.42101
C          5.02133         2.78637         1.22690
C          6.33788         3.51991         1.41084
C          7.62013         2.76162         1.15457
C          8.88214         3.53032         0.89168
C         10.05679         2.90794         0.63518
C         -8.58605         5.14623        -0.83574
C         -7.37985         5.89561        -0.95947
C         -6.10823         5.12014        -1.01762
C         -4.78116         5.82023        -1.09271
C         -3.51258         5.05898        -0.72307
C         -2.50465         5.80767         0.15383
C         -1.44354         5.07233         0.96243
C         -0.25062         5.67454         1.68112
C          1.13562         5.05444         1.66420
C          2.40005         5.80575         1.24402
C          3.74028         5.07696         1.37860
C          5.02369         5.79879         1.06745
C          6.36101         5.09525         1.45217
C          7.52565         5.63972         0.60982
C          8.85091         5.04233         1.05732
C         -7.36577         7.27622        -1.09682
C         -6.12344         8.05604        -1.23414
C         -4.80665         7.32791        -1.15292
C         -3.59122         8.06050        -0.68787
C         -2.43356         7.30084        -0.10607
C         -1.57636         8.27667         0.67510
C         -0.19746         6.80528         2.72520
C          1.13720         7.71463        -0.09455
C          2.38937         6.92342         0.21341
C          3.65467         7.42144        -0.41040
C          4.97583         6.94341         0.12435
C          6.17630         7.33377        -0.71287
C          7.45742         6.70672        -0.20817
C         -6.10007         9.53303        -1.03048
C         -4.97166        10.20743        -0.75308
C         -3.72981         9.53073        -0.21221
C         -2.40621        10.21980        -0.46549
C         -1.25444         9.53686        -0.10725
C          0.06564         9.98249        -0.39349
C          1.24394         9.17055        -0.36742
C          2.48540         9.66711        -0.73811
C          3.66304         8.78798        -1.12089
C          4.99561         9.49739        -0.94543
C          6.15921         8.84692        -0.79506
C        -11.22449        -0.38181        -0.01483
C        -10.13385        -1.22412         0.53270
C         -8.78407        -0.48067         0.87643
C         -7.54856        -1.33817         0.86125
C         -6.13949        -0.68552         0.81321
C         -5.12193        -1.46272        -0.03570
C         -3.74634        -0.85346        -0.03776
C         -2.62240        -1.63607         0.57370
C         -1.35917        -0.90412         0.89115
C         -0.04439        -1.58041         0.57373
C          1.20820        -0.75347         0.46064
C          2.31694        -1.23198        -0.48282
C          3.59752        -0.42080        -0.61779
C          4.90978        -1.07506        -1.10171
C          6.24837        -0.40019        -0.84770
C          7.57662        -1.15175        -1.20497
C          8.91443        -0.39613        -0.83962
C         10.10798        -1.26978        -0.44377
C         11.36592        -0.50888        -0.42627
C        -10.13057        -2.61141         0.10545
C         -8.92578        -3.50702        -0.01725
C         -7.65409        -2.83137         0.60273
C         -6.39571        -3.64483         0.39583
C         -5.18282        -2.94449        -0.10845
C         -3.92439        -3.77116        -0.11567
C         -2.62899        -3.10637         0.22519
C         -1.35941        -3.68903        -0.31160
C         -0.10260        -2.88758        -0.19092
C          1.21928        -3.58243        -0.36112
C          2.32888        -2.68704        -0.86924
C          3.57551        -3.35715        -1.46634
C          4.92335        -2.57688        -1.31569
C          6.19695        -3.30131        -0.88477
C          7.55817        -2.64282        -0.79775
C          8.78992        -3.39365        -0.33392
C         10.02367        -2.58164        -0.12039
C         -8.86848        -4.89019         0.61653
C         -7.80565        -5.83101         0.08919
C         -6.42763        -5.12218         0.23082
C         -5.18195        -5.97118        -0.15514
C         -3.96312        -5.17737        -0.67891
C         -2.64133        -5.89166        -0.79313
C         -1.34728        -5.19243        -0.44664
C         -0.03724        -5.91132        -0.60239
C          1.21527        -5.05111        -0.64428
C          2.45956        -5.69748        -1.15078
C          3.72345        -4.87114        -1.12682
C          4.97996        -5.51336        -0.58543
C          5.90099        -4.48492        -0.00818
C          8.08002        -5.81492        -0.14968
C          8.76257        -4.76318         0.28573
C         -7.60468        -7.20479         0.72581
C         -6.53559        -7.93526         0.29042
C         -5.78969        -7.22975        -0.84133
C         -2.99789        -7.77176         0.92392
C         -2.62322        -7.39515        -0.53918
C         -1.25617        -8.13253        -0.71222
C         -0.01663        -7.33842        -1.20467
C          1.30077        -8.09161        -0.87587
C          2.51702        -7.16171        -0.85947
C          3.75541        -7.75447        -0.26406
C          5.01497        -6.94208        -0.12289
C          6.34637        -7.68069        -0.14980
C          7.62366        -6.99679        -0.54725
C         -6.09634        -9.18173         0.93110
C         -4.85711        -9.70023         1.16934
C         -3.50328        -9.20362         0.90793
C         -2.44641       -10.01367         0.62079
C         -1.18070        -9.43497         0.04411
C          0.16064        -9.98970         0.35390
C          1.28373        -9.30845         0.02042
C          2.45895        -9.87206        -0.76532
C          3.78519        -9.25707        -0.30647
C          5.12284        -9.86750        -0.45870
C          6.26704        -9.14661        -0.39982
O          5.80129        -3.19363        -2.28413
O          4.89465         1.56783         2.01108
O         -2.47513        -7.28453         1.90837
O          1.78823        -1.66987        -1.75933
O         -9.58615         1.72006         1.64521
O         -3.30289        -0.29753        -1.32827
O          6.89146         0.31343         1.43654
O         -3.37503        -5.44083        -1.97555
O          5.05440         7.18012         1.55134
O          7.11184         2.95082         2.49950
O         -0.68900        -5.83973         0.68433
O         -6.41946         1.56722         1.67672
O         -1.14588         3.16621        -0.65188
O          1.89213         2.83919         2.75886
O         -7.68369        -2.33905         1.93466
O         -6.19377        -4.52821         1.53602
O         -1.37558        -9.36840        -1.45146
O          2.52380        -6.63041        -2.24346
O         -2.19972        -1.45953         1.94742
O         -0.62704         5.70282         3.16384
O         -2.43490         7.71397        -1.50132
O         -0.87435        -2.88471        -1.43016
O          4.74433        -5.43240        -2.00944
O          5.74153        -7.20709         1.09035
O          8.42134        -3.39068        -1.74399
O          2.87596         6.39991        -1.09596
O          3.85646         4.38082         2.63755
O          9.23652         0.38175        -1.95414
O          1.87144        -9.09860        -1.90761
O          5.50985        -0.18315        -2.06902
O          3.45753         0.82001        -1.38134
O         -2.71994         5.45179         1.55520
O         -3.05788         4.25085        -1.83345
O         -1.52657         8.29778         1.90130
O          1.87767         5.92703         2.58589
O         -5.41104         5.30418        -2.28434
O          6.11034        -4.40609         1.19407
O          6.69480         5.48969         2.73525
O         -0.35817         1.94254         2.65224
O         -7.14504         3.78285         1.52003
O         -5.49756        -2.11498        -1.27308
O         -3.33640        -3.87312         1.23429
O         -5.30358         7.76849        -2.44451
O          1.37437         1.56140        -0.42004
O         -9.71421        -0.89139         1.89295
O          0.08438         7.10390        -0.23868
O         -5.79149         2.98185        -1.93117
O          0.96694        -1.58739         1.62546
O         -5.92370        -7.43890        -2.02099
O          3.51209        -8.52980         0.94235
O          9.62962         0.52883         1.45644
O          1.57086        -4.50453         0.69224
O         -2.52119         1.09275         1.79965
O          3.30127        -3.36090        -2.87460
H          4.10329        -3.71069        -3.32526
O         -7.06355         5.23102         1.44269
H         -7.49740         5.49370         2.29149
O         -3.57605        -8.03862        -1.36907
H         -3.45789        -7.73621        -2.29511
O         -5.57632        -0.79882         2.12293
H         -6.00995        -0.13945         2.71048
O         -8.01073        -6.03713        -1.33652
H         -8.56684        -6.83332        -1.46544
O          7.57604        -1.16495        -2.63946
H          8.27546        -1.79183        -2.92679
O         -4.74257        -6.51048         1.10827
H         -4.50144        -5.77149         1.71787
O          9.95021         5.64269         0.38696
H          9.96390         5.33545        -0.54226
O         -4.00512         9.48720         1.21973
H         -3.16884         9.41438         1.73195
O          3.48609         8.55197        -2.54159
H          3.03562         7.68061        -2.63826
O          5.92430         6.79034        -2.03676
H          6.48072         7.27027        -2.68438
O         -0.14110        -7.17860        -2.61769
H          0.10163        -8.03226        -3.03723
O         -5.56168         0.66001        -1.70352
H         -4.84181         0.56614        -2.36661
O         -8.70404        -3.53618        -1.42681
H         -8.57582        -4.47132        -1.73489
H         12.29563        -1.03233        -0.69543
H         12.30420         1.40398        -0.21528
H         10.96408         3.51719         0.49751
H          8.94098         5.28104         2.15176
H          8.39633         7.07484        -0.65719
H          7.10363         9.40646        -0.71205
H          4.98605        10.59610        -1.01739
H          2.56053        10.73123        -1.01673
H          0.18089        11.01416        -0.76528
H         -2.36124        11.16588        -1.02722
H         -4.99620        11.30657        -0.70244
H         -7.01937        10.08474        -1.28243
H         -8.31637         7.82797        -1.03031
H         -9.54265         5.65202        -1.03932
H        -10.69760         3.50580        -0.88859
H        -11.97087         1.50002        -0.62812
H        -12.12827        -0.90338        -0.36387
H        -10.81343        -2.76787        -0.75147
H         -8.94458        -4.87104         1.71969
H         -8.21379        -7.51994         1.58689
H         -6.93474        -9.79184         1.31131
H         -4.86492       -10.70322         1.63346
H         -2.55742       -11.11048         0.57196
H          0.23023       -11.03743         0.68573
H          2.49164       -10.96562        -0.97190
H          5.17502       -10.94084        -0.69822
H          7.22053        -9.66454        -0.58743
H          8.24896        -7.56453        -1.26329
H          9.39725        -4.89614         1.18173
H         10.93210        -3.12075         0.19237
