         424
 CSIRO Nanostructure Databank - Neutral Graphene Oxide Data Set
C          1.39651         3.43607         0.59184
C          0.20709         4.10923         0.80017
C          1.25575         6.26121         0.28963
C          0.13474         5.50767         0.65588
C          1.20577         7.72365         0.18840
C          0.03011         8.44783         0.48964
C          1.15083        10.57167         0.04994
C         -0.00121         9.82833         0.39274
C          1.13442        12.02451         0.04079
C         -0.06049        12.75038         0.19830
C          1.12819        14.87828         0.24583
C         -0.06359        14.14235         0.28106
C          1.13126        16.33052         0.43513
C         -0.08771        17.08864         0.44854
C          1.10098        19.20240         0.80787
C         -0.08064        18.46795         0.57999
C          1.12776        20.63094         0.83839
C         -0.10829        21.39855         0.78599
C          1.09442        23.49835         0.43133
C         -0.13186        22.74509         0.58377
C          1.13881        24.78552        -0.04935
C         -0.05000        25.52450        -0.44144
C          1.14804        27.71391        -0.17651
C         -0.04071        26.86773        -0.56288
C          1.15541        29.06805        -0.96623
C         -0.06481        29.86665        -0.62017
C          1.21798        31.91500        -0.25190
C         -0.01606        31.17939        -0.28804
C          1.23173        33.33340        -0.05287
C          0.05227        34.07194         0.25598
C          1.30897        36.14803         0.38224
C          0.09116        35.43411         0.48915
C          1.39832        37.57319         0.69567
C          3.79247         3.49008        -0.01295
C          2.56394         4.15319         0.21193
C          3.64835         6.27867        -0.38341
C          2.49001         5.57499         0.05000
C          3.53678         7.71412        -0.67310
C          2.34891         8.45121        -0.21232
C          3.59085        10.61410        -0.43467
C          2.35544         9.87293        -0.23607
C          3.58950        12.04132        -0.30029
C          2.36061        12.74036        -0.08948
C          3.59018        14.86966         0.04943
C          2.36230        14.16951         0.05793
C          3.59539        16.27165         0.50335
C          2.33275        17.00281         0.61572
C          3.62185        19.20278         0.71889
C          2.36915        18.43668         1.09266
C          3.60732        20.63034         0.80908
C          2.35192        21.33120         0.86701
C          3.60570        23.51223         0.65880
C          2.31665        22.83864         1.03130
C          3.67272        24.79498         0.14710
C          2.44351        25.44323        -0.44248
C          3.63665        27.61875        -0.50758
C          2.46060        26.96542        -0.32790
C          3.70458        29.06631        -0.99712
C          2.43412        29.82439        -0.71810
C          3.71217        31.91126        -0.41135
C          2.44879        31.18944        -0.44812
C          3.71219        33.32699        -0.35170
C          2.46536        34.04939        -0.15913
C          3.77395        36.21241         0.02624
C          2.47391        35.44773         0.01964
C          3.59634        37.67644        -0.43465
C          2.49100        38.30541         0.38935
C          6.19339         3.50402        -0.51176
C          4.95046         4.19103        -0.38284
C          6.07466         6.36529        -0.88251
C          4.87676         5.62157        -0.58012
C          6.10207         7.76100        -0.89755
C          4.82864         8.49659        -0.91450
C          6.04987        10.64132        -0.65097
C          4.81398         9.94086        -0.64066
C          6.02824        12.06052        -0.60194
C          4.81795        12.76539        -0.42536
C          6.01433        14.95076        -0.37714
C          4.81874        14.21302        -0.26666
C          5.98935        16.46173        -0.38325
C          4.86906        17.05295         0.44365
C          6.06573        19.23736         0.44475
C          4.82874        18.53752         0.51104
C          6.07527        20.64310         0.66373
C          4.84516        21.32382         0.84089
C          6.12645        23.54020         1.02068
C          4.83386        22.79089         1.03807
C          6.13286        24.92782         0.48025
C          4.91559        25.47676        -0.02679
C          6.21978        27.60406        -0.65729
C          4.91499        26.85496        -0.56035
C          6.19033        29.09139        -0.52678
C          4.97868        29.77979        -0.59560
C          6.17820        31.93088        -0.40072
C          4.95064        31.20809        -0.47096
C          6.16869        33.36160        -0.43745
C          4.93552        34.03677        -0.44573
C          6.18157        36.24293        -0.53563
C          4.88559        35.51072        -0.74732
C          6.14414        37.68458        -0.46842
C          4.92646        38.37846        -0.37576
C          8.62963         3.52298        -0.84796
C          7.38016         4.17211        -0.82900
C          8.63107         6.40094        -1.14268
C          7.31799         5.61702        -1.13349
C          8.58345         7.84453        -0.87730
C          7.33780         8.51448        -0.85681
C          8.54152        10.66471        -0.62855
C          7.30633         9.94009        -0.74203
C          8.55830        12.09214        -0.73024
C          7.27713        12.77591        -0.91357
C          8.52314        15.07328        -0.82190
C          7.22469        14.32234        -0.88187
C          8.51555        16.45346        -0.28283
C          7.30932        17.13334        -0.07802
C          8.54141        19.22418         0.28259
C          7.30534        18.51769         0.24367
C          8.55152        20.65588         0.48596
C          7.34150        21.35365         0.67367
C          8.58229        23.47151         0.88191
C          7.38381        22.77081         0.85318
C          8.49472        24.96437         1.17989
C          7.34201        25.59272         0.42620
C          8.67020        27.71214         0.10324
C          7.53286        26.84688        -0.39043
C          8.65298        29.12122        -0.09174
C          7.41978        29.80785        -0.32055
C          8.64504        31.96917        -0.25302
C          7.41694        31.23300        -0.32912
C          8.63388        33.40534        -0.34368
C          7.41054        34.09514        -0.44696
C          8.62987        36.26422        -0.44803
C          7.39331        35.54368        -0.48379
C          8.61704        37.70369        -0.48419
C          7.38361        38.38692        -0.46836
C         11.08998         3.53684        -0.77611
C          9.86026         4.23219        -0.87273
C         11.07083         6.37986        -0.69199
C          9.87710         5.66673        -0.88095
C         11.06880         7.82528        -0.61494
C          9.79967         8.54801        -0.64449
C         11.00692        10.68322        -0.06365
C          9.76676         9.94500        -0.49835
C         10.99377        12.13185        -0.48220
C          9.80734        12.81019        -0.72336
C         11.03115        15.04024        -0.37115
C          9.83144        14.30441        -0.84523
C         11.01107        16.39431        -0.10964
C          9.75235        17.13049        -0.09914
C         11.05256        19.25070        -0.08276
C          9.75338        18.51893         0.11431
C         11.03040        20.67178         0.39152
C          9.80145        21.36187         0.53124
C         11.07266        23.45194         0.79315
C          9.82163        22.77299         0.76025
C         11.11648        24.91837         0.93532
C          9.82478        25.68768         1.00108
C         11.10007        27.76143         0.45075
C          9.84240        27.07830         0.51191
C         11.09785        29.16995         0.23699
C          9.86973        29.85981         0.05002
C         11.11966        31.99939        -0.06765
C          9.87095        31.28212        -0.08719
C         11.10950        33.44078        -0.21020
C          9.87907        34.12926        -0.31784
C         11.09064        36.28677        -0.39869
C          9.86570        35.56421        -0.39122
C         11.08356        37.72541        -0.50504
C          9.84787        38.40617        -0.52829
C         13.55104         3.52655        -0.62532
C         12.30833         4.22542        -0.66959
C         13.53087         6.36380        -0.49466
C         12.30810         5.66231        -0.60351
C         13.54096         7.80165        -0.49242
C         12.28166         8.52166        -0.53197
C         13.49832        10.65138        -0.39791
C         12.30019         9.96681        -0.41541
C         13.53284        12.07834        -0.18436
C         12.28883        12.82308        -0.49517
C         13.48267        14.97252         0.23704
C         12.31407        14.32629        -0.38130
C         13.43350        16.30545         0.53196
C         12.23731        17.08733         0.28121
C         13.44046        19.19414         0.75460
C         12.25076        18.47323         0.41097
C         13.49299        20.59149         0.63043
C         12.25769        21.33703         0.51832
C         13.54340        23.46816         0.54046
C         12.28009        22.75834         0.64761
C         13.52510        24.88768         0.35150
C         12.34797        25.61456         0.51001
C         13.57618        27.74313         0.26856
C         12.32546        27.03835         0.42992
C         13.56546        29.18273         0.26937
C         12.33870        29.88639         0.21068
C         13.65551        31.98801        -0.12905
C         12.32576        31.30476         0.06516
C         13.59142        33.49125        -0.02418
C         12.34183        34.16519        -0.19565
C         13.55804        36.30820        -0.35215
C         12.32874        35.59059        -0.30308
C         13.55149        37.73621        -0.54660
C         12.31370        38.41942        -0.59466
C         16.01817         3.51003        -0.52554
C         14.76011         4.20713        -0.52261
C         15.98487         6.34755        -0.31719
C         14.76432         5.64829        -0.44582
C         15.99377         7.77933        -0.26388
C         14.76131         8.48424        -0.40878
C         16.01307        10.65886        -0.11569
C         14.80426         9.96079        -0.68832
C         15.96916        12.02986         0.16892
C         14.70149        12.73967         0.13029
C         15.94195        14.90290         0.63013
C         14.64424        14.13071         0.72409
C         15.92625        16.27511         0.82825
C         14.61240        16.92383         1.25489
C         15.94631        19.18813         1.13678
C         14.63376        18.45248         1.20552
C         15.94219        20.63526         0.87113
C         14.74548        21.32055         0.72898
C         16.02843        23.47342         0.51102
C         14.75401        22.76305         0.57558
C         16.04662        24.87075         0.27016
C         14.77196        25.57087        -0.13770
C         16.04262        27.78967        -0.18881
C         14.77380        27.04835         0.12604
C         16.01217        29.20613         0.32612
C         14.82326        29.87553         0.40626
C         16.09315        32.05937         0.45771
C         14.77591        31.35591         0.71824
C         16.05011        33.56743         0.55847
C         14.78008        34.20623         0.04419
C         16.02596        36.30485        -0.36803
C         14.78996        35.61792        -0.19792
C         16.01554        37.71007        -0.65200
C         14.78348        38.40944        -0.69050
C         18.49257         3.49279        -0.47176
C         17.21135         4.18195        -0.38855
C         18.42082         6.30889        -0.03553
C         17.22223         5.62520        -0.23441
C         18.44474         7.74228         0.04187
C         17.21913         8.47646        -0.07915
C         18.42992        10.61022         0.26960
C         17.23360         9.92419         0.01875
C         18.43945        12.04401         0.34085
C         17.18695        12.75660         0.38186
C         18.39047        14.91814         0.47216
C         17.17764        14.18156         0.50135
C         18.37278        16.32240         0.46319
C         17.14705        17.03599         0.72181
C         18.39936        19.17978         0.65701
C         17.18301        18.43331         0.86112
C         18.44583        20.56247         0.83475
C         17.21789        21.35460         1.21657
C         18.48906        23.46427         0.61460
C         17.24294        22.78109         0.72176
C         18.50504        24.88447         0.43885
C         17.26899        25.60428         0.28942
C         18.51328        27.75151         0.31169
C         17.28521        27.02445         0.18910
C         18.52678        29.15650         0.43979
C         17.26598        29.88736         0.80205
C         18.55028        32.05082         0.33842
C         17.28657        31.37637         0.47260
C         18.59505        33.56740         0.40713
C         17.29885        34.24127         0.06441
C         18.50909        36.27799        -0.61161
C         17.27623        35.58319        -0.30541
C         18.46956        37.67392        -0.92070
C         17.23946        38.37273        -0.90768
C         19.65209         4.12585        -0.21025
C         20.91565         6.30631        -0.00401
C         19.66824         5.53494         0.31470
C         20.90141         7.66948         0.05395
C         19.68429         8.41219         0.18595
C         20.92266        10.64164         0.20364
C         19.70012         9.86319         0.60075
C         20.88825        12.00323         0.17516
C         19.66955        12.73574         0.33301
C         20.75517        14.95832        -0.27351
C         19.72938        14.22464         0.55831
C         20.69614        16.30017        -0.39003
C         19.56938        17.06624         0.13116
C         20.71238        19.25623        -0.24033
C         19.58009        18.45827         0.20129
C         20.78789        20.57952         0.01183
C         19.78248        21.25622         0.91535
C         20.92706        23.46759         0.67512
C         19.72374        22.75565         0.71206
C         20.94997        24.84922         0.51135
C         19.74807        25.58945         0.38464
C         20.97387        27.76523         0.15189
C         19.75501        27.01772         0.28817
C         21.01022        29.11840         0.27273
C         19.80948        29.88547         0.73962
C         20.95325        32.04889         0.02069
C         19.76857        31.35186         0.32735
C         20.94321        33.40260        -0.36630
C         19.79692        34.17921        -0.26741
C         20.92421        36.29006        -0.97996
C         19.75498        35.58168        -0.62509
C         20.87955        37.65614        -1.28384
C         19.67875        38.34913        -1.24826
O          7.96836         5.98840        -2.38996
O          4.54115        16.42408         1.71103
O          5.59246        27.06842        -1.89589
O         10.63609        25.48522         2.21794
O         12.53619        13.66787        -1.68990
O          3.95363         8.09765        -2.02601
O         15.25866        18.94295         2.45550
O          9.28530        14.91827        -2.06132
O          5.45011        23.29019         2.29226
O          7.10097        13.58361        -2.13516
O          2.17771        23.06018         2.48579
H          1.52673        22.40765         2.82169
O         14.76661        25.43394        -1.61813
H         15.35940        26.15115        -1.96108
O         14.46508        31.53598         2.12873
H         15.08511        30.95402         2.62506
O         16.10428        27.88783        -1.69098
H         15.44594        28.56641        -1.95869
O          5.64835        16.82971        -1.76231
H          6.29098        16.39056        -2.36079
O         18.77453        33.85512         1.85642
H         17.87247        33.80217         2.26380
O         17.17895        29.86200         2.28205
H         18.09875        30.05852         2.60305
O         10.95929        10.70480         1.41610
H         11.02028         9.77494         1.72268
O         14.98849        10.06938        -2.15458
H         14.19626         9.67455        -2.57811
O         19.66652         5.40924         1.79105
H         19.66498         6.32167         2.15391
O          8.03526        26.37229        -1.68666
H          7.24224        26.24593        -2.26057
O         17.20847        21.45045         2.69278
H         16.78474        20.63438         3.03884
O          2.46210        18.31611         2.57032
H          3.22837        17.71773         2.74283
O         20.17051        14.37054         1.96200
H         20.17889        15.33167         2.16046
O          1.07008        28.72570        -2.37680
H          1.99457        28.69407        -2.73173
O         14.42020        16.56195         2.66126
H         14.88296        17.25971         3.18637
O          8.13461        25.08260         2.58428
H          8.97384        25.00980         3.09548
O          3.77393        28.93846        -2.46929
H          4.52528        28.31472        -2.65239
O         19.75184         9.80950         2.09136
H         19.74828        10.73965         2.40719
O         14.39532        13.88029         2.14574
H         14.39471        14.76368         2.59893
O         20.28972        21.07128         2.28560
H         20.20529        20.11870         2.50155
O          1.01132        28.07062         1.22452
H          0.97572        27.24288         1.74851
O         11.22661        19.34816        -1.54721
H         11.18914        18.43610        -1.90862
O          3.12959        37.75777        -1.80917
H          3.66699        37.12167        -2.34055
O         16.01094        33.81491         2.02781
H         15.31371        33.20281         2.38162
O          2.53007        25.19891        -1.88921
H          3.35897        25.61334        -2.21248
O          4.22907        36.24335         1.40411
H          3.52973        36.67331         1.94069
O         19.91724        29.94441         2.23651
H         20.15773        29.04052         2.53576
O         14.05653        31.70719        -1.51299
H         13.37694        32.09395        -2.10462
O          4.58111        35.58370        -2.18563
H          5.31331        35.14255        -2.66622
H          1.45064         2.34483         0.71312
H         -0.69605         3.55341         1.08863
H         -0.83003         5.99869         0.83987
H         -0.88363         7.92132         0.79482
H         -0.94049        10.34611         0.62728
H         -1.02278        12.22561         0.26019
H         -1.02662        14.65278         0.41335
H         -1.04672        16.58450         0.27267
H         -1.03729        18.99653         0.46560
H         -1.06507        20.86581         0.86919
H         -1.10126        23.25174         0.47259
H         -0.98315        24.97467        -0.63549
H         -0.96489        27.38118        -0.86387
H         -1.04314        29.36941        -0.68545
H         -0.95916        31.70455        -0.08295
H         -0.91078        33.55305         0.34956
H         -0.82929        35.97136         0.75916
H          0.53850        38.03869         1.20224
H          3.84434         2.39925         0.12080
H          2.53090        39.38017         0.62334
H          6.22187         2.42320        -0.30712
H          4.94307        39.47970        -0.36675
H          8.65946         2.43046        -0.71916
H          7.37663        39.48683        -0.45115
H         11.08812         2.43693        -0.78920
H          9.83741        39.50468        -0.58418
H         13.54630         2.42806        -0.68563
H         12.30647        39.51334        -0.70998
H         16.01421         2.41647        -0.64831
H         14.78868        39.49485        -0.86898
H         18.48888         2.43700        -0.78340
H         17.23124        39.44873        -1.13650
H         20.61084         3.59034        -0.28211
H         21.86856         5.76458        -0.09693
H         21.85494         8.21199        -0.01868
H         21.89025        10.12983         0.11078
H         21.82689        12.55760         0.03107
H         21.61031        14.41213        -0.69652
H         21.49669        16.83068        -0.92506
H         21.50956        18.77277        -0.82318
H         21.65413        21.15382        -0.34863
H         21.87830        22.93086         0.79651
H         21.91975        25.36419         0.50534
H         21.90453        27.23109        -0.08816
H         21.97475        29.63252         0.16265
H         21.91691        31.52342         0.00875
H         21.87970        33.83552        -0.74589
H         21.89544        35.77780        -0.99581
H         21.80911        38.18215        -1.54295
H         19.64753        39.42322        -1.48022
