         344
 CSIRO Nanostructure Databank - Neutral Graphene Oxide Data Set
C          1.39782         3.52588        -1.55854
C          0.29763         4.24284        -1.95432
C          1.37487         6.37612        -1.41099
C          0.28567         5.66477        -1.88028
C          1.34056         7.83076        -1.23277
C          0.12966         8.55414        -1.39673
C          1.24762        10.65089        -0.84533
C          0.09169         9.91971        -1.21910
C          1.19011        12.07747        -0.63423
C         -0.01452        12.82221        -0.81665
C          1.08599        14.95198        -0.33624
C         -0.04553        14.20883        -0.70945
C          1.09352        16.38053        -0.26107
C         -0.09216        17.16160        -0.40698
C          1.14431        19.23637        -0.02056
C         -0.06720        18.53124        -0.28838
C          1.17800        20.66209         0.14379
C         -0.00351        21.45536         0.05454
C          1.26595        23.50071         0.47610
C          0.03777        22.81562         0.22801
C          1.30298        24.92901         0.59126
C          0.10396        25.69395         0.82090
C          1.28336        27.84633         0.68365
C          0.09327        27.04991         0.98563
C          1.40604        29.25956         1.06982
C          3.75355         3.48776        -0.87164
C          2.57314         4.19288        -1.08350
C          3.69100         6.32647        -0.56575
C          2.56795         5.65237        -0.99493
C          3.81865         7.80871        -0.81298
C          2.49741         8.53490        -0.85996
C          3.66320        10.67097        -0.26324
C          2.47702         9.94616        -0.65359
C          3.59478        12.07929        -0.10528
C          2.36801        12.76643        -0.26955
C          3.58380        14.94322         0.00470
C          2.28631        14.20034         0.18756
C          3.56561        16.31337        -0.04826
C          2.32729        17.06410        -0.05215
C          3.57858        19.16722         0.37843
C          2.35166        18.48210         0.08424
C          3.60618        20.53826         0.54998
C          2.41328        21.32360         0.41889
C          3.73944        23.41258         0.79053
C          2.46591        22.74181         0.56161
C          3.75771        24.85069         0.83449
C          2.57276        25.57752         0.67092
C          3.84023        27.77845         0.80118
C          2.60466        27.05095         0.55313
C          3.85726        29.17221         0.85218
C          2.60755        29.89155         1.03655
C          6.16886         3.50931        -0.45491
C          4.94631         4.14645        -0.45879
C          6.13127         6.30147         0.11045
C          4.82058         5.55019         0.08414
C          6.07823         7.73597         0.43201
C          4.82330         8.50258         0.08127
C          6.04032        10.62202         0.50665
C          4.89119         9.97390         0.04987
C          5.90006        12.07418         0.91702
C          4.79634        12.82216         0.21966
C          6.09372        14.92603         0.19143
C          4.82510        14.20786         0.15459
C          6.11286        16.31736        -0.09844
C          4.82660        17.09358        -0.27104
C          6.05442        19.17042         0.10366
C          4.85736        18.37305         0.57011
C          6.07747        20.52641         0.26710
C          4.91094        21.17694         0.97688
C          6.25070        23.33488         0.99253
C          4.92575        22.67883         0.87242
C          6.31345        24.84078         1.22703
C          4.98619        25.59496         1.35607
C          6.33268        27.75102         1.23712
C          5.11194        26.98310         0.70776
C          6.32965        29.19907         0.78386
C          5.10316        29.87531         0.77592
C          8.60421         3.54674        -0.15760
C          7.39012         4.20705        -0.16716
C          8.57920         6.37503         0.27985
C          7.34093         5.64624         0.07182
C          8.55006         7.79191         0.50197
C          7.32332         8.50314         0.57001
C          8.52739        10.61807         0.95607
C          7.28443         9.91318         0.72851
C          8.51698        12.09299         1.20629
C          7.22865        12.84740         1.00911
C          8.56132        14.86737         0.22258
C          7.30239        14.24071         0.47736
C          8.57883        16.17582        -0.58179
C          7.29990        17.03292        -0.36173
C          8.17564        19.30098        -1.05502
C          7.15322        18.45425        -0.52099
C          8.37330        20.63197        -0.74131
C          7.14013        21.40382        -0.35780
C          8.61680        23.38044         0.19526
C          7.41098        22.69535         0.36911
C          8.70510        24.80854         0.47939
C          7.55071        25.55115         0.85943
C          8.76182        27.67858         0.64549
C          7.58338        26.98726         0.85359
C          8.78316        29.12623         0.55325
C          7.55273        29.84649         0.58015
C         11.05135         3.56525         0.02447
C          9.83751         4.24535         0.04934
C         11.03559         6.38728         0.43287
C          9.80619         5.67854         0.25638
C         10.99222         7.79333         0.61734
C          9.77629         8.51208         0.64594
C         11.02420        10.67755         0.82473
C          9.75006         9.94192         0.85730
C         11.04922        12.10417         0.81013
C          9.83264        12.88441         1.24047
C         11.04140        14.92236         0.53900
C          9.76985        14.23860         0.55322
C         11.05849        16.32874         0.18989
C          9.90631        16.90560        -0.38717
C         11.11628        19.04502        -0.66211
C         10.06024        18.17344        -0.95107
C         11.00726        20.50616        -0.80146
C          9.73082        21.18267        -0.31805
C         11.00337        23.37994        -0.45585
C          9.79569        22.69655        -0.29509
C         11.08034        24.80525        -0.21199
C          9.93247        25.48854         0.25015
C         11.21867        27.65871         0.10907
C         10.05794        26.92072         0.70486
C         11.21762        29.08015         0.10397
C          9.99492        29.79034         0.34284
C         13.52496         3.56963         0.04374
C         12.29560         4.25469         0.14209
C         13.52943         6.36143         0.35942
C         12.28409         5.67303         0.34727
C         13.54081         7.79642         0.70479
C         12.24289         8.52645         0.85645
C         13.50975        10.70519         0.39257
C         12.23186         9.98946         0.74973
C         13.52619        12.14867         0.80042
C         12.28149        12.82135         0.83175
C         13.50777        15.03399         1.12819
C         12.23997        14.26525         0.82895
C         13.53988        16.43070         0.55326
C         12.27867        17.07069         0.23217
C         13.48584        19.23737        -0.10047
C         12.26648        18.43420        -0.13052
C         13.45242        20.47852        -0.93183
C         12.17144        21.22971        -0.88343
C         13.43294        23.34834        -0.99195
C         12.22726        22.67735        -0.81413
C         13.49365        24.77979        -0.79786
C         12.32165        25.48976        -0.39793
C         13.56742        27.64934        -0.51568
C         12.37746        26.93899        -0.25632
C         13.60010        29.06943        -0.46013
C         12.41012        29.77504        -0.19142
C         16.01109         3.59697        -0.05403
C         14.75580         4.26640         0.02823
C         15.96796         6.49130        -0.18975
C         14.73240         5.69061         0.14507
C         16.06461         7.79682         0.63203
C         14.78603         8.58875         0.58047
C         16.03434        10.66360         1.11114
C         14.77700         9.93646         0.68688
C         16.01792        12.14773         0.87529
C         14.78080        12.85242         0.86305
C         16.02313        14.97717         0.81222
C         14.79188        14.27346         0.87935
C         16.02677        16.40526         0.57047
C         14.75051        17.08826         0.41676
C         16.01290        19.19392        -0.34843
C         14.78431        18.54075         0.14611
C         16.00504        20.45737        -0.85451
C         14.73573        21.15536        -1.23306
C         15.94854        23.29747        -0.84373
C         14.71058        22.65699        -1.50504
C         15.95983        24.78241        -1.10056
C         14.72713        25.46526        -0.95792
C         15.83071        27.64737        -1.61106
C         14.87645        26.92601        -0.63573
C         15.99977        29.07784        -1.10736
C         14.85725        29.74019        -0.63316
C         18.48869         3.59852         0.06130
C         17.24194         4.29552        -0.01884
C         18.48610         6.40905         0.01870
C         17.26650         5.72404        -0.04507
C         18.53930         7.88863        -0.05466
C         17.24142         8.63639         0.17182
C         18.50770        10.72128         0.57075
C         17.29332        10.02836         0.58527
C         18.49840        12.12722         0.84672
C         17.25887        12.83721         0.87629
C         18.50267        14.99663         0.76734
C         17.26069        14.27505         0.82291
C         18.48714        16.41264         0.57823
C         17.23181        17.08049         0.37878
C         18.50380        19.23847        -0.15442
C         17.28005        18.38150        -0.38843
C         18.54283        20.48432        -0.68808
C         17.29232        21.12831        -1.16151
C         18.48891        23.39876        -0.88655
C         17.26174        22.63069        -1.21977
C         18.40680        24.81665        -0.89668
C         17.16148        25.47539        -1.21823
C         18.39585        27.67092        -1.29379
C         17.20577        26.88153        -1.78165
C         18.46242        29.10779        -1.73697
C         17.19778        29.76280        -1.27441
C         19.68423         4.28012         0.14960
C         20.94125         6.43953         0.23618
C         19.71582         5.70262         0.13830
C         20.98352         7.81712         0.27160
C         19.79678         8.61374         0.18658
C         20.97260        10.80650         0.32371
C         19.76159        10.01085         0.34573
C         20.98548        12.12535         0.61946
C         19.78387        12.83490         1.18917
C         20.92508        15.06413         0.87226
C         19.74907        14.32189         0.89864
C         20.90565        16.46265         0.73022
C         19.70742        17.15148         0.58516
C         20.93487        19.40053         0.38440
C         19.64252        18.67010         0.65991
C         21.00584        20.57232        -0.25841
C         19.83276        21.25116        -0.91726
C         20.81713        23.53167        -0.26539
C         19.70469        22.74505        -0.61517
C         20.73117        24.92340        -0.21540
C         19.54386        25.59479        -0.55345
C         20.52594        27.86603        -0.12960
C         19.47127        27.06325        -0.63367
C         20.53276        29.26101        -0.33354
C         19.59256        29.86849        -1.12759
O          6.50777        23.90937         2.35111
O         14.03857        20.36827        -2.27991
O          1.87049        27.54554        -0.62228
O         17.32682        21.84650        -2.44972
O         17.75850         8.42962        -1.19333
O          7.74495        12.58290         2.36916
O         14.13144        19.36249         1.20502
O         12.96964         8.02113         2.05809
O          5.00377         8.00565         1.43892
O          9.11129        18.63127        -1.85898
O          9.72512        20.80796         1.12319
H         10.45653        21.29228         1.56346
O         15.17150        27.70792        -2.87818
H         15.76586        27.25052        -3.52634
O          6.31409        27.84226         2.68546
H          5.75729        27.10429         3.04109
O          8.53338        15.76819        -1.98487
H          8.62456        16.59105        -2.51611
O          2.07382        14.12845         1.65199
H          1.30025        13.54507         1.80459
O         19.29605        18.94694         2.05899
H         19.24177        19.91979         2.16752
O         13.47926        15.23361         2.59366
H         14.21424        15.84193         2.82288
O         20.06853        21.18277        -2.35571
H         19.25032        21.52391        -2.79215
O         10.38261        26.83918         2.15931
H          9.55844        26.57059         2.62109
O          4.42045         5.37365         1.48871
H          4.42953         6.27787         1.88982
O         15.76280         6.81352        -1.59039
H         16.53378         7.36086        -1.88571
O          5.33083        26.71098        -0.70419
H          5.09991        27.51450        -1.21569
O         10.13216        13.18577         2.64013
H          9.26691        13.33323         3.08927
O         19.91730        12.73080         2.66182
H         20.04066        11.78083         2.87305
O         16.32176         7.43193         2.01040
H         16.10581         8.21403         2.56832
O         15.83326        23.08417         0.59076
H         15.15034        23.69656         0.93814
O          4.41169         7.93591        -2.15940
H          3.77167         7.55854        -2.80003
O         14.77719        22.88103        -2.92064
H         14.35824        22.10411        -3.35474
O         18.56958        29.16083        -3.23313
H         19.52434        29.11914        -3.45498
O          4.71841        25.74038         2.78140
H          5.11497        24.94017         3.20607
O          4.77598        17.55642        -1.65922
H          4.76881        16.76591        -2.23863
O          5.35015        11.97739         2.27262
H          6.12105        11.93214         2.88720
O          6.52617        21.85083        -1.63928
H          6.29965        21.04619        -2.15417
O          5.08216        20.85024         2.41213
H          4.42128        21.37262         2.91470
O         16.06439        10.45803         2.58817
H         16.65167        11.14730         2.96758
O         17.39608        17.91969        -1.78441
H         17.45100        18.71354        -2.35945
O         15.51980        27.00480         0.68037
H         14.84514        26.79933         1.36143
O         13.48556        10.74765        -1.10398
H         12.73852        11.32785        -1.36714
O          4.99615        18.03352         1.96107
H          5.09860        18.88558         2.45101
O         17.42866        26.70955        -3.21903
H         17.85062        27.55541        -3.53439
H          1.39995         2.42786        -1.61782
H         -0.59614         3.72438        -2.32848
H         -0.62819         6.18550        -2.19683
H         -0.79557         8.02944        -1.66822
H         -0.86448        10.43865        -1.36475
H         -0.93755        12.30803        -1.11320
H         -0.98133        14.72659        -0.96435
H         -1.05356        16.66274        -0.59074
H         -1.01129        19.08263        -0.39118
H         -0.97002        20.98033        -0.15907
H         -0.89379        23.38934         0.13420
H         -0.83322        25.14621         0.99439
H         -0.81599        27.56071         1.33487
H          0.49635        29.80500         1.36277
H          3.79385         2.41506        -1.11645
H          2.66752        30.96679         1.26156
H          6.22860         2.44410        -0.72797
H          5.08539        30.96859         0.64891
H          8.63531         2.46049        -0.33049
H          7.56805        30.92990         0.38355
H         11.05800         2.47642        -0.13369
H         10.00296        30.88861         0.27701
H         13.52248         2.47469        -0.06483
H         12.41601        30.87478        -0.18025
H         16.02523         2.49684        -0.08581
H         14.91219        30.81966        -0.42142
H         18.48077         2.49873         0.07270
H         17.27198        30.78026        -0.85466
H         20.63066         3.72593         0.23131
H         21.88060         5.87270         0.31640
H         21.95629         8.31397         0.39600
H         21.90430        10.32562        -0.00940
H         21.93663        12.67232         0.55078
H         21.89695        14.57172         1.01102
H         21.86153        17.00246         0.76315
H         21.85538        18.98692         0.82454
H         21.99227        21.04085        -0.39842
H         21.77992        23.05376        -0.03889
H         21.63148        25.49306         0.05241
H         21.33792        27.41143         0.45199
H         21.33881        29.86110         0.11325
H         19.64034        30.95121        -1.31485
