         600
 CSIRO Nanostructure Databank - Neutral Graphene Oxide Data Set
C         23.39573        27.36462         1.97295
C         23.46544        28.71124         2.15443
C         23.35889        31.62290         1.84433
C         23.32777        32.98347         1.79216
C         23.30333        35.90958         1.82344
C         23.28690        37.28086         1.79781
C         23.19655        40.22545         1.60070
C         23.16914        41.59759         1.52147
C         23.16354        44.55300         1.53804
C         23.12140        45.91175         1.50757
C         25.57943        24.56185         0.66731
C         24.46397        25.19896         1.10589
C         25.67588        27.40661         0.83651
C         24.40140        26.66295         1.15284
C         25.88856        28.74000         1.51613
C         24.59790        29.49425         1.71401
C         25.76585        31.63629         1.26150
C         24.57613        30.88547         1.62578
C         25.73805        33.03764         1.24068
C         24.51439        33.75698         1.54121
C         25.78670        35.92878         1.52782
C         24.49029        35.15834         1.56430
C         25.63527        37.37258         1.10005
C         24.43814        38.05316         1.39603
C         25.51530        40.20222         0.82423
C         24.36857        39.48437         1.27100
C         25.48710        41.64200         0.75215
C         24.31298        42.34746         1.11393
C         25.41820        44.47710         0.56026
C         24.28248        43.79010         1.02378
C         25.32910        45.90777         0.23281
C         24.10319        46.67906         0.73301
C         25.36399        48.81412         0.60825
C         24.25700        48.12988         0.95877
C         27.98967        23.11859        -0.19014
C         27.98528        24.53242        -0.09125
C         26.80480        25.25704         0.31850
C         28.09687        27.36848         0.23017
C         26.88739        26.64338         0.47981
C         28.12457        28.80251         0.36609
C         26.99398        29.51990         0.85753
C         28.11751        31.65035         0.42503
C         26.96423        30.92161         0.86338
C         28.09026        33.07473         0.42313
C         26.91588        33.78373         0.84412
C         28.03583        35.92303         0.39422
C         26.90933        35.18937         0.84951
C         27.98934        37.35494         0.28112
C         26.75652        38.07653         0.58531
C         27.80802        40.22912        -0.13265
C         26.67477        39.47826         0.43035
C         27.86554        41.68464         0.05677
C         26.67495        42.37549         0.39844
C         27.87643        44.52283         0.12600
C         26.65490        43.79783         0.34600
C         27.88410        45.97435         0.03601
C         26.58190        46.66649        -0.09141
C         27.87026        48.89445         0.06794
C         26.56523        48.18355         0.01137
C         27.90659        50.29454         0.10987
C         30.34833        23.10930        -0.80262
C         29.14113        22.42857        -0.50026
C         30.32643        24.51905        -0.83568
C         29.17499        25.24103        -0.42098
C         30.40079        27.40737        -0.63714
C         29.23025        26.68181        -0.28780
C         30.45027        28.80375        -0.47582
C         29.29588        29.51746        -0.01419
C         30.46787        31.66862        -0.35013
C         29.29542        30.94707         0.02733
C         30.44723        33.09463        -0.32655
C         29.25518        33.79819         0.04448
C         30.41083        35.95181        -0.29917
C         29.22668        35.22381         0.02173
C         30.38695        37.37184        -0.29470
C         29.15092        38.04653        -0.09775
C         30.36261        40.26667        -0.36292
C         29.10916        39.49292        -0.37515
C         30.33291        41.66461        -0.29638
C         29.08022        42.37940        -0.12103
C         30.35948        44.51061         0.05020
C         29.07676        43.79883        -0.00149
C         30.35892        46.01777         0.08547
C         29.06137        46.71336        -0.01813
C         30.32990        48.87071        -0.10491
C         29.08357        48.16491        -0.04583
C         30.32843        50.28592        -0.10425
C         29.11585        50.97713        -0.00267
C         32.81611        20.26800        -0.71338
C         31.62949        20.96083        -0.75755
C         32.82685        23.04686        -1.10997
C         31.60512        22.37087        -0.93930
C         32.79067        24.47330        -1.50037
C         31.49778        25.23685        -1.38339
C         32.87173        27.39898        -1.21008
C         31.50399        26.76407        -1.45409
C         32.87811        28.82974        -1.08010
C         31.66655        29.52902        -0.78069
C         32.85812        31.65327        -1.03757
C         31.66447        30.94545        -0.70710
C         32.77736        33.11540        -1.19292
C         31.60138        33.84038        -0.70722
C         32.84035        35.99998        -0.76326
C         31.61365        35.25011        -0.63706
C         32.83165        37.42182        -0.61655
C         31.59979        38.12422        -0.48218
C         32.82817        40.27538        -0.51771
C         31.59546        39.54815        -0.44686
C         32.82282        41.69107        -0.52869
C         31.57371        42.40782        -0.40235
C         32.78650        44.57014        -0.78760
C         31.58182        43.79546        -0.32999
C         32.81443        46.02963        -0.40112
C         31.61234        46.74584        -0.23201
C         32.83837        48.86741        -0.27046
C         31.59279        48.15540        -0.21557
C         32.86482        50.28002        -0.20383
C         31.59359        51.07194        -0.37367
C         32.86806        53.02334         0.49083
C         31.67757        52.39067         0.35130
C         35.33098        18.80035        -0.61408
C         35.30512        20.22385        -0.70122
C         34.06395        20.93840        -0.80417
C         35.32660        23.03958        -1.07686
C         34.07272        22.35046        -1.00907
C         35.36377        24.47902        -1.41504
C         34.07646        25.23751        -1.60848
C         35.34324        27.37967        -1.33612
C         34.06966        26.70211        -1.36814
C         35.34573        28.82169        -1.33323
C         34.10455        29.54577        -1.24999
C         35.31347        31.74737        -1.49499
C         34.06449        30.97568        -1.28682
C         35.35372        33.18001        -1.16416
C         34.10505        33.91893        -1.26612
C         35.31016        36.00860        -0.73054
C         34.07549        35.33123        -0.90048
C         35.30402        37.42810        -0.60158
C         34.06681        38.13760        -0.60264
C         35.29993        40.27258        -0.50654
C         34.06708        39.56081        -0.54552
C         35.29937        41.69798        -0.48938
C         34.06191        42.41750        -0.53094
C         35.29300        44.54963        -0.49635
C         34.07550        43.83387        -0.54232
C         35.29755        45.98742        -0.47267
C         34.05599        46.71519        -0.41631
C         35.31640        48.84018        -0.30794
C         34.07154        48.13782        -0.31393
C         35.33505        50.25880        -0.19872
C         34.09700        50.97790        -0.11008
C         35.35858        53.09657         0.14863
C         34.11478        52.38523         0.13781
C         35.41129        54.49847         0.34032
C         37.76044        18.80439        -0.41836
C         36.51143        18.11613        -0.49310
C         37.76230        20.23192        -0.50278
C         36.53324        20.93752        -0.67141
C         37.79304        23.09131        -0.81589
C         36.53596        22.36685        -0.83885
C         37.80404        24.50449        -0.99337
C         36.61166        25.23894        -1.18263
C         37.87744        27.39111        -1.51011
C         36.56913        26.65249        -1.29014
C         37.81263        28.84610        -1.12722
C         36.58323        29.52095        -1.24713
C         37.81778        31.69992        -0.84775
C         36.63674        30.98563        -1.36697
C         37.78156        33.12422        -0.67856
C         36.54579        33.84837        -0.86651
C         37.75991        35.97692        -0.47992
C         36.54218        35.28204        -0.69296
C         37.76424        37.40728        -0.43199
C         36.53728        38.13143        -0.50461
C         37.76858        40.26452        -0.41652
C         36.53553        39.55685        -0.47138
C         37.76891        41.68977        -0.42303
C         36.53237        42.40899        -0.45807
C         37.76961        44.54384        -0.44259
C         36.53334        43.83391        -0.45755
C         37.77197        45.96869        -0.44493
C         36.53213        46.68774        -0.43830
C         37.78643        48.82288        -0.36892
C         36.54750        48.11775        -0.37628
C         37.80181        50.24690        -0.28498
C         36.57505        50.96509        -0.17726
C         37.83295        53.09561        -0.03827
C         36.58993        52.38858        -0.04039
C         37.84037        54.50036         0.15857
C         36.62538        55.17249         0.35859
C         40.14557        15.96355         0.05155
C         39.03593        16.64903        -0.30078
C         40.19315        18.82136        -0.03301
C         38.97790        18.09441        -0.23268
C         40.20137        20.25043        -0.15133
C         38.99533        20.95762        -0.41207
C         40.24831        23.09314        -0.35607
C         39.00568        22.38076        -0.56302
C         40.28642        24.50555        -0.50394
C         39.13582        25.18484        -1.18876
C         40.26628        27.35620        -0.72382
C         39.09536        26.67427        -0.97078
C         40.28036        28.83592        -0.87197
C         38.98982        29.55879        -0.84083
C         40.12022        31.55184         0.20752
C         38.97283        30.95514        -0.57974
C         40.10290        33.08365         0.25337
C         38.94381        33.82811        -0.28524
C         40.21882        35.96270        -0.11751
C         38.97970        35.24776        -0.27223
C         40.22701        37.39226        -0.22729
C         38.99650        38.11412        -0.33288
C         40.23370        40.25239        -0.32785
C         39.00068        39.54140        -0.35721
C         40.23729        41.67835        -0.36266
C         39.00294        42.39933        -0.40085
C         40.24302        44.53224        -0.42848
C         39.00524        43.82421        -0.42182
C         40.24761        45.95666        -0.45538
C         39.01074        46.67709        -0.44627
C         40.26108        48.80781        -0.47662
C         39.01971        48.10023        -0.43017
C         40.27479        50.23155        -0.45465
C         39.04616        50.95896        -0.31608
C         40.31771        53.08049        -0.31327
C         39.06540        52.36984        -0.21211
C         40.34405        54.49113        -0.20400
C         39.14510        55.24755         0.31543
C         40.26629        57.32051        -0.48411
C         39.11808        56.66962        -0.19254
C         42.62558        15.95132         0.40868
C         41.33164        16.67097         0.63406
C         42.63985        18.81379         0.29687
C         41.39339        18.12547         0.24517
C         42.65151        20.24649         0.23489
C         41.43085        20.96408         0.04666
C         42.64894        23.12382         0.45394
C         41.42056        22.38096         0.00372
C         42.70221        24.55573         0.00264
C         41.49726        25.23951        -0.31169
C         42.72988        27.38487        -0.27942
C         41.50767        26.66373        -0.46005
C         42.75705        28.80060        -0.20898
C         41.56335        29.59752        -0.52294
C         42.65248        31.54532         0.65022
C         41.49106        31.00405        -0.15134
C         42.68420        33.08146         0.64732
C         41.39552        33.84055         0.45808
C         42.68546        35.94747        -0.04978
C         41.45086        35.26997         0.06730
C         42.70007        37.38690        -0.20642
C         41.45801        38.10469        -0.21681
C         42.70137        40.24087        -0.28988
C         41.46744        39.53055        -0.28287
C         42.70508        41.66542        -0.32347
C         41.47199        42.38745        -0.35995
C         42.71423        44.52344        -0.42643
C         41.47762        43.81348        -0.40504
C         42.72062        45.94353        -0.49276
C         41.48569        46.66203        -0.49578
C         42.72618        48.79579        -0.66173
C         41.49081        48.08741        -0.53505
C         42.71988        50.20176        -0.75226
C         41.51129        50.93033        -0.59887
C         42.77726        53.07229        -0.66819
C         41.52728        52.36541        -0.56038
C         42.78484        54.50218        -0.60824
C         41.55274        55.20372        -0.42148
C         42.74815        57.32485        -0.68298
C         41.54025        56.63198        -0.49751
C         43.80359        16.64179         0.36652
C         45.17932        18.75733         0.51448
C         43.84934        18.06629         0.37190
C         45.13020        20.23803         0.22649
C         43.91519        20.95396         0.24679
C         45.15805        23.07648         0.15973
C         43.93398        22.37531         0.20903
C         45.17966        24.52041         0.11858
C         43.93977        25.24120         0.01868
C         45.19566        27.36387        -0.04784
C         43.95735        26.66411        -0.10084
C         45.21005        28.78811        -0.02578
C         43.97094        29.50434         0.01652
C         45.18421        31.62897         0.13054
C         43.96095        30.91298         0.19843
C         45.20859        33.05199         0.16255
C         43.96615        33.81188         0.41215
C         45.15382        35.90108        -0.14102
C         43.93844        35.24706         0.04116
C         45.18868        37.34576        -0.57459
C         43.91403        38.09104        -0.28418
C         45.17485        40.22251        -0.24258
C         43.93991        39.51521        -0.28359
C         45.17637        41.65275        -0.26455
C         43.94073        42.37667        -0.32097
C         45.18570        44.51019        -0.36113
C         43.95117        43.79941        -0.37493
C         45.19854        45.93541        -0.45460
C         43.96353        46.65787        -0.54178
C         45.21824        48.77965        -0.70273
C         43.97200        48.06805        -0.66418
C         45.24292        50.18791        -0.85475
C         43.96953        50.91389        -1.19676
C         45.23319        53.07087        -0.88466
C         43.99381        52.37568        -0.84510
C         45.24873        54.49805        -0.85136
C         44.00445        55.22598        -0.74896
C         43.95580        56.64278        -0.77556
C         47.44307        18.78909        -0.50101
C         46.29780        18.10525        -0.25982
C         47.56643        20.19235        -0.18304
C         46.36447        20.92669         0.07483
C         47.64498        23.04545         0.08478
C         46.38895        22.35561         0.09218
C         47.66197        24.49630         0.07847
C         46.41404        25.21380         0.05868
C         47.66239        27.35707        -0.06296
C         46.42915        26.64322        -0.00989
C         47.67632        28.78479        -0.09263
C         46.43947        29.50053        -0.03393
C         47.66324        31.63617        -0.10175
C         46.43103        30.92423        -0.02061
C         47.66291        33.06450        -0.12518
C         46.41320        33.75935        -0.01816
C         47.62448        35.89341        -0.19948
C         46.39211        35.18959        -0.09634
C         47.60766        37.33799        -0.04103
C         46.43199        38.05554        -0.10045
C         47.60186        40.20254         0.17410
C         46.41973        39.50083        -0.03081
C         47.69791        41.63103        -0.28732
C         46.39384        42.37832        -0.22858
C         47.66380        44.51671        -0.18501
C         46.41501        43.78544        -0.26039
C         47.66794        45.92943        -0.29753
C         46.43386        46.64213        -0.44791
C         47.68760        48.76909        -0.57441
C         46.44747        48.06304        -0.56429
C         47.69661        50.18257        -0.71759
C         46.46033        50.89405        -0.84503
C         47.70216        53.03229        -0.97315
C         46.47217        52.33916        -0.93142
C         47.68300        54.45465        -0.99449
C         46.50028        55.16067        -0.92772
C         50.04517        20.21373        -0.46730
C         48.81746        20.88033        -0.22419
C         50.13679        22.95632         0.17563
C         48.83696        22.29337         0.01728
C         50.14203        24.48617         0.14049
C         48.87210        25.20894        -0.00771
C         50.11972        27.36374        -0.21401
C         48.89767        26.64016        -0.09966
C         50.14524        28.77901        -0.23337
C         48.90798        29.49887        -0.15871
C         50.13474        31.65275        -0.21383
C         48.90195        30.92694        -0.16993
C         50.13592        33.07804        -0.28267
C         48.88044        33.79119        -0.26638
C         50.07097        36.02063        -0.68198
C         48.84823        35.21122        -0.30026
C         50.14856        37.35502         0.04763
C         48.86658        37.97352         0.37325
C         50.12939        40.20786         0.48996
C         48.83747        39.51710         0.55284
C         50.09993        41.66417         0.65968
C         48.81266        42.39908         0.38365
C         50.10147        44.52779         0.22656
C         48.87710        43.84166         0.10743
C         50.12703        45.93803        -0.00391
C         48.90741        46.63940        -0.23943
C         50.16210        48.74950        -0.45013
C         48.92251        48.05426        -0.41879
C         50.17712        50.16614        -0.66897
C         48.94508        50.88576        -0.77619
C         50.20409        52.95118        -1.06397
C         48.95639        52.29828        -0.94894
C         51.27057        20.90271        -0.51610
C         52.67121        22.98169        -0.39020
C         51.36649        22.24246        -0.18391
C         52.59591        24.48227        -0.16132
C         51.41869        25.16425        -0.16731
C         52.68331        27.39266        -0.42379
C         51.37489        26.62466        -0.42256
C         52.63844        28.84488        -0.20605
C         51.39208        29.51463        -0.23525
C         52.59919        31.67212        -0.08767
C         51.37576        30.94682        -0.19098
C         52.59716        33.10324        -0.13004
C         51.36925        33.78339        -0.32672
C         52.65945        35.99348        -0.32596
C         51.38176        35.23593        -0.60173
C         52.61363        37.43857        -0.01892
C         51.34173        38.08073         0.15618
C         52.57918        40.25256         0.50446
C         51.32946        39.51839         0.42007
C         52.57577        41.67690         0.62803
C         51.35505        42.41343         0.60513
C         52.57953        44.52982         0.47152
C         51.33855        43.81286         0.46893
C         52.59446        45.93008         0.23041
C         51.36903        46.64028        -0.00719
C         52.64279        48.72705        -0.35863
C         51.38814        48.03698        -0.26638
C         52.66388        50.11848        -0.65268
C         51.41911        50.85330        -0.77602
C         51.39663        52.25052        -0.98970
C         55.03205        23.04761         0.38040
C         53.86474        22.38892         0.33512
C         55.14754        24.44684        -0.20164
C         53.87694        25.19784         0.20298
C         55.09280        27.36077         0.12483
C         53.92272        26.66911        -0.11443
C         55.08930        28.80934         0.17735
C         53.85221        29.53659         0.03339
C         55.01993        31.69167         0.37958
C         53.83047        30.96883         0.09751
C         55.04850        33.10586         0.34830
C         53.83789        33.82673         0.06416
C         55.07141        35.96809         0.23565
C         53.86223        35.23667         0.05869
C         55.05199        37.39387         0.18198
C         53.82868        38.12931         0.16948
C         55.02823        40.29738         0.58826
C         53.82346        39.57220         0.40541
C         55.03417        41.69425         0.86455
C         53.79953        42.39999         0.75874
C         55.04006        44.52809         0.79185
C         53.80055        43.82376         0.70277
C         55.05172        45.92344         0.47929
C         53.84203        46.61772         0.18081
C         55.11159        48.69074        -0.28920
C         53.86719        48.01248        -0.15796
C         55.10209        50.06382        -0.63956
C         53.91870        50.75612        -0.80671
C         57.61512        24.55204         0.35763
C         56.38401        25.22188         0.22692
C         57.53116        27.35780         0.61815
C         56.33601        26.62801         0.35307
C         57.51115        28.79308         0.70473
C         56.27312        29.48689         0.52473
C         57.54679        31.69911         0.90780
C         56.20689        30.92927         0.78263
C         57.53292        33.13646         0.61484
C         56.29362        33.83066         0.47914
C         57.55706        35.95927         0.42214
C         56.30617        35.24963         0.36920
C         57.57246        37.38080         0.42656
C         56.32722        38.11566         0.16372
C         57.52775        40.25768         0.93167
C         56.32279        39.63340         0.35946
C         57.43404        41.57680         1.46006
C         56.24287        42.40493         1.20783
C         57.42083        44.66285         1.42303
C         56.23929        43.82730         1.18664
C         57.48068        45.99298         0.89359
C         56.29648        46.63659         0.41900
C         57.60547        48.64749        -0.08094
C         56.34175        47.98805        -0.00756
C         58.78150        25.24757         0.64354
C         59.96580        27.38847         1.00698
C         58.76154        26.65379         0.76731
C         59.95535        28.75679         1.02996
C         58.74343        29.50298         0.86143
C         59.97328        31.65623         0.54023
C         58.78505        30.93095         0.77118
C         59.97472        33.03988         0.46472
C         58.77364        33.80508         0.50096
C         59.99692        35.98879         0.50583
C         58.79029        35.24948         0.46110
C         59.98643        37.36411         0.63774
C         58.76903        38.09049         0.64308
C         59.83924        40.06729         1.68945
C         58.72655        39.50543         1.02712
C         59.72470        41.29186         2.33219
C         58.52569        42.00689         2.24244
C         59.71324        45.00731         2.30107
C         58.51431        44.27484         2.21593
C         59.83037        46.20257         1.61455
C         58.69973        46.73465         0.94911
C         58.74667        48.04255         0.38198
O         36.11793        31.42840        -2.67165
O         50.23817        23.76017         1.41884
O         48.75638        38.59824         1.68729
O         52.04128        26.96801        -1.69255
O         52.25442        35.61565        -1.72381
O         34.84166        24.79630        -2.77273
O         41.14308        29.29242        -1.94028
O         31.92082        24.67285        -2.67569
O         43.43169        33.58617         1.80512
O         30.51502        45.25675         1.34533
O         28.20499        39.82015        -1.49337
O         56.74711        31.32676         2.08172
O         56.46386        39.05636        -0.97593
O         33.31117        33.59905        -2.45901
O         24.62187        27.34177        -0.15490
O         49.14907        42.05331         1.74866
O         24.22237        46.23368        -0.65514
O         58.40737        43.14859         3.04692
O         40.47176        33.60097         1.57677
O         26.41229        47.49977        -1.27838
O         26.38276        28.39565         2.86041
H         26.56480        29.23505         3.33351
O         42.52025        23.19854         1.93846
H         43.31816        23.66280         2.27164
O         31.17635        27.12227        -2.82796
H         31.56611        26.41759        -3.39848
O         43.90664        50.88707        -2.68397
H         43.08923        51.36269        -2.94585
O         39.85882        31.06054         1.55897
H         40.66977        31.25806         2.09691
O         55.18912        24.36801        -1.65515
H         56.05527        23.99086        -1.91600
O         26.21138        36.01585         2.95055
H         25.48386        36.46163         3.43563
O         48.09859        41.57472        -1.70387
H         47.37787        41.13281        -2.20179
O         52.93583        22.83525        -1.82305
H         53.73130        23.39197        -2.03001
O         53.88947        25.13177         1.67266
H         53.02568        25.45389         2.00702
O         49.84897        36.37483        -2.08050
H         50.74232        36.39134        -2.50284
O         41.13219        16.66115         2.10963
H         41.90495        17.12298         2.50164
O         45.29353        37.32299        -2.04947
H         44.50181        36.85743        -2.39347
O         32.64128        44.61384        -2.27291
H         32.72732        43.69242        -2.60078
O         38.06141        27.39351        -2.96634
H         38.29457        26.46680        -3.22525
O         42.50031        31.15423         2.06924
H         42.96320        31.85503         2.58798
O         39.40469        25.02555        -2.65874
H         40.31471        25.35900        -2.81952
O         45.53446        18.62889         1.94980
H         46.39711        19.08070         2.07052
O         39.34580        55.35557         1.77862
H         40.20423        55.81000         1.91749
O         31.52071        51.41217        -1.81203
H         32.34259        51.89961        -2.03449
H         22.54729        26.79050         2.37383
H         22.63981        29.21612         2.67755
H         22.42978        31.07569         2.05136
H         22.37261        33.49520         1.96791
H         22.36099        35.38580         2.03468
H         22.34166        37.79497         2.01476
H         22.28875        39.70156         1.92782
H         22.23729        42.11897         1.77718
H         22.37161        44.01922         2.08130
H         22.33465        46.45564         2.05138
H         25.56812        23.46428         0.63418
H         23.59846        24.62035         1.46200
H         25.41553        49.88507         0.85377
H         23.43455        48.65362         1.47034
H         27.07730        22.54506         0.01584
H         26.97432        50.87225         0.16466
H         29.10001        21.33251        -0.51989
H         29.09887        52.07405        -0.04818
H         32.78102        19.18042        -0.57254
H         30.69416        20.39775        -0.65173
H         32.89063        54.02809         0.93635
H         30.75579        52.90437         0.65856
H         34.39503        18.22902        -0.65484
H         34.48658        55.07111         0.49009
H         36.48506        17.02108        -0.42385
H         36.62160        56.25371         0.55202
H         40.17103        14.86584        -0.01466
H         38.16409        16.09774        -0.68012
H         40.25047        58.38719        -0.75518
H         38.16724        57.22101        -0.20194
H         42.62547        14.85182         0.43558
H         42.73450        58.42243        -0.74884
H         44.74765        16.07929         0.33705
H         44.87894        57.22399        -0.89974
H         48.28625        18.27524        -0.98485
H         46.22821        17.04664        -0.54585
H         48.62506        55.01679        -1.03589
H         46.54357        56.25791        -0.92199
H         50.04605        19.13424        -0.66794
H         50.24831        54.03692        -1.22099
H         52.17811        20.35440        -0.80643
H         52.33594        52.81078        -1.08577
H         55.89928        22.59200         0.88258
H         53.77826        21.37825         0.76345
H         56.04685        50.60819        -0.76627
H         53.96897        51.82269        -1.06218
H         57.65894        23.46027         0.23296
H         57.67050        49.66954        -0.47599
H         59.73350        24.70887         0.75224
H         60.90584        26.83656         1.15018
H         60.89604        29.29598         1.20557
H         60.92817        31.12361         0.43363
H         60.93644        33.55015         0.32438
H         60.96375        35.46875         0.49372
H         60.94561        37.89183         0.72202
H         60.77562        39.50325         1.78413
H         60.54911        41.68969         2.93749
H         60.53554        44.62167         2.91748
H         60.76267        46.78332         1.65112
H         59.70575        48.57998         0.36625
