         275
 CSIRO Nanostructure Databank - Neutral Graphene Oxide Data Set
C         30.51254        31.68358        -0.22271
C         30.55385        32.91538        -0.17094
C         30.55690        36.06401         0.18312
C         30.24976        37.26631         0.10296
C         30.56819        40.23173        -1.20990
C         30.66827        41.32450        -1.80240
C         32.79406        28.93336        -1.05732
C         31.73899        29.44424        -0.68046
C         32.94427        31.51571        -0.21799
C         31.59987        30.70828         0.11710
C         32.91962        32.99649         0.04882
C         31.70769        33.82647        -0.44508
C         32.90619        35.88949         0.34382
C         31.70780        35.21603         0.13446
C         33.01462        37.30809         0.68342
C         31.05678        38.40875         0.44851
C         32.62461        40.39938         0.08933
C         31.35650        39.53093        -0.26772
C         32.88976        41.55940        -0.90667
C         31.84119        42.14842        -1.61842
C         32.99900        44.19968        -1.54313
C         32.08971        43.51054        -2.05685
C         35.52103        27.18340        -0.82771
C         35.41668        28.67396        -0.91660
C         34.15490        29.46332        -1.06236
C         35.42727        31.65627        -0.73233
C         34.09647        30.91095        -0.59772
C         35.46961        33.08067        -0.20102
C         34.20332        33.76248         0.11718
C         35.33069        35.95851        -0.14630
C         34.18758        35.24362         0.05722
C         35.31767        37.47023        -0.31276
C         34.04777        38.08293         0.25646
C         35.24303        40.28258         0.41090
C         33.93680        39.57021         0.40580
C         35.35768        41.69294        -0.05276
C         34.26545        42.23424        -0.96271
C         35.36305        44.47781        -0.68639
C         34.23269        43.77812        -0.96476
C         35.59950        45.87786        -0.63349
C         38.01828        27.32331        -0.73777
C         36.75992        26.84618        -0.96970
C         37.87300        28.58743         0.13999
C         36.56269        29.36221        -0.16749
C         37.77839        31.65741         0.41342
C         36.55191        30.85361        -0.05673
C         37.94197        32.99962        -0.38447
C         36.63999        33.77165        -0.23180
C         37.74771        35.93680         0.47815
C         36.66864        35.28249        -0.37260
C         37.78496        37.40965         0.57922
C         36.55535        38.15004         0.29635
C         37.61667        40.28120         1.14817
C         36.50101        39.49027         0.51478
C         37.83724        41.55672         0.29905
C         36.54597        42.34299         0.05007
C         37.78157        44.57673         0.20495
C         36.71872        43.74873        -0.51113
C         37.76051        45.95873         0.32530
C         36.53428        46.55928        -0.17289
C         40.69539        25.12530        -1.92399
C         39.59988        25.69422        -1.95662
C         40.55617        27.60181        -0.84663
C         39.23949        27.11049        -1.60406
C         40.39912        28.86985        -0.08628
C         39.07266        29.51262         0.05353
C         40.30484        31.56546         0.62250
C         39.05932        30.84693         0.36495
C         40.22989        33.03477         0.94611
C         39.24305        33.81584         0.02886
C         40.26514        35.94979         0.96671
C         39.02728        35.17757         0.70007
C         40.22754        37.33489         1.11788
C         38.95291        38.04291         0.98665
C         40.24945        40.23624         1.35370
C         38.92658        39.49170         1.31442
C         40.26842        41.68881         1.08299
C         38.94450        42.37784         0.93374
C         40.24163        44.56377         1.04097
C         38.90489        43.85791         0.84762
C         40.20713        46.02571         0.62257
C         38.95135        46.70157         0.69953
C         40.25674        48.72407         0.94678
C         39.16542        48.08283         0.84536
C         43.14885        24.83699        -1.03053
C         41.88640        25.48587        -1.18912
C         42.65717        27.12141         0.62774
C         41.72453        26.72714        -0.52911
C         42.70752        28.62268         1.00114
C         41.47796        29.42081         0.77757
C         42.77560        31.56435         0.93247
C         41.50099        30.90126         0.78136
C         42.75802        33.03534         0.92823
C         41.57187        33.72197         0.89545
C         42.77958        35.93156         0.74209
C         41.54833        35.19000         1.28008
C         42.76228        37.33302         1.33466
C         41.47914        38.09634         1.25556
C         42.75356        40.26130         1.14299
C         41.52319        39.48688         1.21873
C         42.73446        41.64281         0.92150
C         41.45287        42.34032         0.86314
C         42.70596        44.57934         0.50328
C         41.37875        43.76710         0.34009
C         42.55979        45.94732        -0.22526
C         41.42920        46.71745         0.49542
C         42.89098        48.54900         0.80510
C         41.51882        48.11972         0.79705
C         44.00516        25.44782        -0.28640
C         45.08973        27.09155         1.46460
C         44.08893        26.56245         0.48444
C         45.16159        28.65238         1.34261
C         44.00253        29.36706         1.12629
C         45.24395        31.60404         0.86315
C         43.95378        30.82871         1.02600
C         45.21461        32.98636         1.56821
C         44.00832        33.78736         1.11925
C         45.34494        35.87130         1.40925
C         44.04134        35.14603         1.08996
C         45.28744        37.34033         1.00644
C         44.05552        38.07468         1.49306
C         45.34647        40.27852         1.25075
C         44.02303        39.60743         1.67078
C         45.28720        41.74175         0.84273
C         43.96364        42.40797         0.66595
C         45.12887        44.42668        -0.24645
C         43.94199        43.73470         0.24031
C         45.08398        45.82750        -0.53815
C         43.91338        46.75029        -0.40994
C         43.89929        47.82280         0.65290
C         47.56440        27.26155         1.26186
C         46.49563        26.66502         1.21243
C         47.87443        28.72579         1.27477
C         46.45721        29.36503         1.53988
C         47.72664        31.47494         0.85653
C         46.46961        30.83676         1.34670
C         47.81763        32.93343         1.09766
C         46.56375        33.72030         1.33143
C         47.85664        35.85625         0.71900
C         46.50953        35.12054         0.72342
C         47.86920        37.27568         0.70263
C         46.59512        38.02958         0.75854
C         47.83153        40.24496         0.45487
C         46.61863        39.51584         0.97598
C         47.65214        41.52931        -0.26551
C         46.47887        42.35845         0.11538
C         47.40106        44.18702        -1.27915
C         46.30563        43.66506        -0.55583
C         47.26092        45.56242        -1.55072
C         46.23270        46.22077        -1.22909
C         49.64299        28.78073        -0.63044
C         48.32792        29.25395        -0.09855
C         49.54181        31.54411        -0.83637
C         48.53376        30.79951        -0.00529
C         49.80358        32.97962        -0.47628
C         49.12792        33.60452         0.74008
C         50.40306        35.77023         0.53327
C         49.03969        35.11242         0.60930
C         50.33633        37.25097         0.14721
C         49.20607        38.02499         0.81470
C         50.11948        40.03524        -0.63782
C         49.13583        39.50352         0.34210
C         49.80158        41.14282        -1.41784
C         48.64640        41.98782        -1.08169
C         49.09109        43.37358        -3.03232
C         48.67380        43.44931        -1.53493
C         50.52258        29.34650        -1.26909
C         51.83499        31.52958        -1.78272
C         50.57931        30.70833        -1.84238
C         51.92113        32.73906        -1.53519
C         51.10604        33.65947        -0.79677
C         52.40831        35.79339        -0.75574
C         51.35678        34.92376        -0.37026
C         52.50520        37.03088        -0.85155
C         51.39374        37.88504        -0.44740
C         52.13137        39.74941        -1.97494
C         51.49525        39.36417        -0.64998
C         51.76176        40.69837        -2.69102
C         50.62334        41.52919        -2.58270
C         50.11205        42.65680        -3.23707
O         43.43855        37.40071         2.63075
O         38.48497        43.14905         2.09434
O         47.44998        33.44350         2.44052
O         45.65120        37.64692        -0.37476
O         41.75038        28.86590         2.10492
O         48.93627        32.65283        -1.60437
O         37.99673        35.22928         1.73457
O         40.96698        28.87959        -1.47323
O         35.04656        29.24416        -2.19614
O         33.47766        33.31496         1.34177
O         39.54684        39.82340         2.59496
O         34.48524        40.07114         1.67644
O         32.00990        37.98834         1.41049
O         46.31326        39.98455         2.31971
O         36.04241        30.01950         1.04198
O         46.45536        30.28943         2.68922
O         38.04703        32.69913        -1.81999
O         48.88339        40.38984         1.48286
O         46.27510        42.52305         1.56436
O         38.29426        41.12466        -1.00012
H         38.28561        41.91503        -1.59434
O         50.03758        33.28754         1.81842
H         49.64014        33.62416         2.65091
O         37.14790        40.68984         2.43894
H         37.91701        40.66652         3.05557
O         37.82062        28.15147         1.51432
H         37.13327        28.68482         1.97513
O         45.41121        31.84188        -0.55931
H         45.62965        32.78865        -0.72313
O         39.98090        34.11048        -1.18547
H         39.35384        34.53523        -1.81452
O         37.08778        35.51403        -1.76422
H         36.58818        34.88973        -2.33618
O         52.26094        39.92066         0.41294
H         53.04330        39.34934         0.56490
O         44.67209        26.75820         2.78369
H         43.76036        26.37939         2.74801
O         48.79295        29.13112         2.24765
H         48.40038        29.00275         3.13594
O         45.04293        32.77380         2.97066
H         45.93846        32.74935         3.38186
O         37.48618        32.04608         1.77303
H         36.97108        31.31649         2.18923
O         43.89588        39.87361         3.08489
H         44.76685        39.69400         3.50526
O         43.82456        47.45458        -1.66079
H         44.71494        47.80865        -1.87598
O         42.12411        26.41812         1.79058
H         41.59018        27.08030         2.30168
O         50.02717        30.71407        -3.12052
H         49.74968        31.63242        -3.33162
O         39.05479        27.89020        -2.77004
H         39.83393        28.48532        -2.87850
O         42.09490        45.74184        -1.56816
H         42.32121        46.54929        -2.08896
O         41.65191        35.20217         2.72389
H         40.95198        34.59460         3.06482
O         31.61495        30.43827         1.48645
H         30.76533        30.03385         1.75465
O         42.89976        44.97451         1.87728
H         42.72973        44.21197         2.46969
O         46.13622        34.89258        -0.65954
H         45.94539        35.77851        -1.05481
O         47.29676        28.95528        -1.02557
H         47.59756        29.19101        -1.92787
O         35.68686        31.80605        -2.14129
H         35.58484        30.91777        -2.56864
O         31.87744        33.94764        -1.86443
H         31.08527        34.38482        -2.24088
O         40.51465        44.59203         2.45505
H         39.76643        44.13077         2.90818
O         39.12673        31.75574        -2.01511
H         39.92850        32.34552        -1.99924
O         32.24792        41.06987         1.29428
H         32.98851        40.96764         1.94439
O         49.53022        38.04957         2.23373
H         49.27935        38.94689         2.57056
O         39.81727        33.17806         2.32797
H         38.88507        32.84935         2.41812
O         42.67541        36.06650        -0.69074
H         42.48909        35.18143        -1.07042
O         49.71601        44.09682        -0.83295
H         49.60121        45.06676        -0.92180
O         50.99155        35.74849         1.85577
H         50.57811        36.48344         2.37082
O         37.20356        43.53307        -1.87935
H         36.49389        43.02263        -2.34580
O         34.80060        41.91102        -2.30262
H         34.11076        42.16002        -2.95787
O         41.00377        43.52782        -1.02899
H         41.08901        44.36164        -1.55095
O         45.59500        35.81537         2.82214
H         44.77906        36.12836         3.28041
O         35.34968        37.73836        -1.74263
H         36.10597        37.22364        -2.11164
