         404
 CSIRO Nanostructure Databank - Neutral Graphene Oxide Data Set
C          1.58649         1.98486        -2.29825
C          1.50374         3.40872        -2.14413
C          2.72936         1.28580        -2.04520
C          2.57492         4.16220        -1.71442
C          1.26779         6.30054        -1.48654
C          1.19106         7.65654        -1.26654
C          2.50438         5.58755        -1.40380
C          2.36519         8.44761        -1.08775
C          1.11212        10.56589        -0.60587
C          1.09822        11.93751        -0.44298
C          2.30315         9.86234        -0.93516
C          2.27826        12.73709        -0.56277
C          1.11923        14.95065         0.11855
C          1.20104        16.28563         0.35740
C          2.18902        14.22009        -0.57864
C          2.39011        17.06032         0.05953
C          2.44265        18.47982         0.36043
C          3.98009         1.99248        -1.75731
C          3.89382         3.50809        -1.60224
C          5.13215         1.29531        -1.15756
C          4.88213         4.14304        -0.69726
C          3.67504         6.29707        -1.07172
C          3.63569         7.74989        -1.04925
C          4.89071         5.60434        -0.65554
C          4.82944         8.45977        -0.93763
C          3.51864        10.66770        -1.10008
C          3.50551        12.11417        -0.80370
C          4.85260         9.90241        -1.10615
C          4.75129        12.86013        -0.77303
C          3.49146        15.01211        -0.83680
C          3.51827        16.43505        -0.43325
C          4.74987        14.23867        -0.78931
C          4.74591        17.21219        -0.69202
C          3.58189        19.21265         0.21565
C          4.82369        18.62188        -0.24601
C          6.06934         1.93842        -0.36985
C          5.74473         3.32539         0.00963
C          7.36168         1.26453        -0.20263
C          7.39518         4.55682         0.68460
C          6.06398         6.34699        -0.43066
C          6.13982         7.72337        -1.04810
C          7.31133         5.77862        -0.00200
C          7.37725         8.52078        -0.69622
C          6.06021        10.62545        -0.60801
C          6.01918        12.11802        -0.47992
C          7.36485         9.92992        -0.66474
C          7.32467        12.81022        -0.48908
C          5.99308        14.99080        -0.48049
C          6.04646        16.44414        -0.82990
C          7.30094        14.26828        -0.34017
C          7.35011        17.17285        -0.69105
C          6.02112        19.28782        -0.14567
C          7.32624        18.67588        -0.44597
C          8.52424         1.66368         0.43681
C          8.59103         3.85929         0.81507
C          9.86521         1.23783         0.15585
C          9.79337         4.31768         0.26122
C          8.57115         6.40699        -0.27535
C          8.59974         7.82932        -0.55769
C          9.77140         5.67633        -0.16285
C          9.83081         8.54168        -0.51232
C          8.56102        10.67351        -0.54566
C          8.53371        12.12493        -0.51143
C          9.81289         9.97665        -0.51513
C          9.79277        12.86922        -0.50914
C          8.56818        15.02630        -0.39853
C          8.56783        16.40353        -0.36132
C          9.79382        14.26505        -0.43801
C          9.77576        17.12917         0.17657
C          8.59035        19.33120        -0.03786
C          9.78315        18.63517         0.01328
C         11.01044         2.04150         0.33391
C         11.01974         3.52295         0.33884
C         12.28112         1.39281         0.21783
C         12.22514         4.19592         0.28957
C         11.03812         6.34940        -0.48354
C         11.07329         7.82113        -0.45694
C         12.32567         5.58934        -0.18419
C         12.30634         8.47341        -0.43460
C         11.03044        10.69281        -0.49041
C         11.04878        12.12985        -0.48886
C         12.29453         9.93949        -0.59601
C         12.26059        12.81452        -0.30428
C         11.03883        15.04144        -0.55850
C         11.07469        16.46423        -0.20295
C         12.36281        14.26155        -0.45156
C         12.27236        17.13598        -0.05831
C         11.04370        19.29005         0.11947
C         12.26975        18.58917         0.12368
C         13.50019         2.05424         0.39338
C         13.46420         3.51064         0.78986
C         14.74445         1.39819         0.36038
C         14.74656         4.25390         0.51738
C         13.55053         6.37805         0.04747
C         13.54834         7.77321        -0.17388
C         14.74943         5.66912         0.37960
C         14.79847         8.49838        -0.03864
C         13.58955        10.67520        -0.33729
C         13.46647        12.08346         0.11854
C         14.82578         9.93210        -0.03279
C         14.71775        12.82977         0.48028
C         13.55733        15.00251        -0.01174
C         13.53821        16.41944         0.01277
C         14.73455        14.30592         0.34376
C         14.74466        17.12865         0.26307
C         13.50058        19.26654         0.21818
C         14.74300        18.57876         0.27243
C         15.97104         2.08666         0.53940
C         15.95864         3.55049         0.61815
C         17.19713         1.39570         0.51909
C         17.17954         4.26339         0.75606
C         15.99061         6.37848         0.43828
C         15.99287         7.77833         0.21244
C         17.21323         5.66965         0.68812
C         17.28640         8.46608         0.13060
C         15.99614        10.67649         0.20051
C         15.99779        12.08876         0.42634
C         17.29397         9.99756         0.11545
C         17.19230        12.78482         0.63198
C         15.92800        15.00421         0.57396
C         15.95798        16.42447         0.49514
C         17.14575        14.24241         0.92416
C         17.20350        17.14907         0.60665
C         15.96550        19.26662         0.34000
C         17.20809        18.58142         0.45122
C         18.44051         2.04889         0.71935
C         18.40247         3.49163         1.05338
C         19.67122         1.39647         0.65254
C         19.70734         4.23704         1.17352
C         18.46965         6.39574         0.80738
C         18.50809         7.79012         0.58762
C         19.69785         5.70293         1.00885
C         19.71302         8.53322         0.73957
C         18.52280        10.71250         0.48266
C         18.44954        12.10156         0.63305
C         19.74877         9.97246         0.65030
C         19.69816        12.87957         0.59924
C         18.43568        15.02035         1.04709
C         18.42569        16.47300         0.78876
C         19.71400        14.30903         0.88778
C         19.66408        17.15935         0.72200
C         18.44074        19.26864         0.42612
C         19.67480        18.58524         0.53178
C         20.93015         2.08575         0.73475
C         20.95968         3.50884         0.91592
C         22.14975         1.40830         0.55445
C         22.16486         4.22326         0.86355
C         20.91605         6.39280         1.04602
C         20.92002         7.82724         1.02489
C         22.17107         5.66167         1.02521
C         22.12371         8.53635         1.27554
C         20.98102        10.65044         0.84113
C         21.03393        12.11757         0.65583
C         22.16409         9.93547         1.15574
C         22.19488        12.89788         1.09474
C         20.91275        15.00774         0.93026
C         20.90288        16.45345         0.86434
C         22.16858        14.29440         1.09047
C         22.12422        17.15296         0.85359
C         20.92355        19.26059         0.46036
C         22.14272        18.57983         0.62258
C         23.39399         2.09761         0.54116
C         23.40570         3.53324         0.70546
C         24.61130         1.42565         0.33296
C         24.62990         4.24452         0.72832
C         23.37844         6.34541         1.09609
C         23.35997         7.76369         1.50888
C         24.63964         5.67014         0.95179
C         24.65726         8.48363         1.67573
C         23.46277        10.65094         1.26455
C         23.46265        12.16836         1.25103
C         24.65211         9.95100         1.73288
C         24.61485        12.88977         1.84857
C         23.37088        15.06960         1.29343
C         23.34511        16.44859         1.13357
C         24.61138        14.38579         1.74404
C         24.57785        17.23849         1.32844
C         23.39651        19.25413         0.51328
C         24.61729        18.61667         0.78786
C         25.84774         2.13419         0.23661
C         25.86180         3.56777         0.50715
C         27.01893         1.50226        -0.14796
C         27.08543         4.26674         0.59216
C         25.85732         6.36831         1.00427
C         25.87397         7.87182         1.01342
C         27.10364         5.68196         0.89754
C         27.17366         8.49651         1.42819
C         25.89901        10.63705         2.05217
C         25.92776        12.16178         2.00120
C         27.22492         9.86645         2.06927
C         27.16577        12.86187         1.64692
C         25.92400        15.02733         1.58316
C         25.91374        16.48495         1.49126
C         27.12638        14.28799         1.46392
C         27.14117        17.17478         1.10921
C         25.86390        19.25028         0.63071
C         27.10777        18.57642         0.77794
C         28.24609         2.30034        -0.46609
C         28.31481         3.61081         0.27935
C         29.51281         1.52028        -0.36239
C         29.53975         4.23951         0.50435
C         28.32451         6.37069         1.02888
C         28.35530         7.78876         1.30281
C         29.57834         5.56129         1.23335
C         29.63585         8.48644         1.41946
C         28.40641        10.67989         1.55344
C         28.37504        12.10584         1.44794
C         29.61353         9.95036         1.38812
C         29.57209        12.81069         1.08183
C         28.36456        15.01120         1.25013
C         28.33439        16.43006         1.10194
C         29.59659        14.27315         1.06749
C         29.58384        17.20660         1.05803
C         28.31753        19.24580         0.46512
C         29.56867        18.60267         0.56915
C         30.72452         2.16450        -0.14024
C         30.76469         3.57189         0.23245
C         31.94764         1.45481        -0.25916
C         32.00849         4.24450         0.37487
C         30.85695         6.34693         1.04054
C         30.83387         7.74996         1.31288
C         32.05580         5.65275         0.73353
C         32.12815         8.46712         1.40674
C         30.79485        10.66385         1.04295
C         30.75371        12.06135         0.84449
C         32.09237         9.94667         1.13532
C         31.95589        12.76032         0.33906
C         30.80056        14.96534         0.85186
C         30.88732        16.42684         0.96623
C         31.99803        14.26092         0.36518
C         32.05812        17.14695         0.44832
C         30.77080        19.22769         0.21830
C         32.02032        18.52395         0.15483
C         33.18009         2.11852        -0.15493
C         33.21941         3.53681         0.13173
C         34.38347         1.40694        -0.34999
C         34.47446         4.20367         0.17548
C         33.33072         6.30489         0.75211
C         33.44815         7.68499         1.35600
C         34.51981         5.61307         0.47735
C         34.63526         8.46271         0.80351
C         33.32548        10.57709         0.58550
C         33.26120        12.02383         0.25279
C         34.63500         9.87055         0.70345
C         34.52199        12.81055         0.41025
C         33.31578        14.95307         0.33684
C         33.32364        16.41681         0.41706
C         34.50271        14.27635         0.17270
C         34.57406        17.14563        -0.06495
C         33.18520        19.17918        -0.37028
C         34.40670        18.51921        -0.57813
C         35.62674         2.06085        -0.30090
C         35.67500         3.47580        -0.04828
C         36.83040         1.34455        -0.51410
C         36.94404         4.13346        -0.00652
C         35.81118         6.28424         0.49418
C         35.84079         7.74637         0.58274
C         36.97766         5.55734         0.25738
C         37.02281         8.46214         0.28476
C         35.81458        10.58336         0.40110
C         35.81509        12.07037         0.45988
C         37.03157         9.88298         0.17360
C         37.06474        12.83201         0.11885
C         35.73855        14.94572        -0.19737
C         35.70808        16.32663        -0.50885
C         36.94662        14.21828        -0.39939
C         36.79615        16.95470        -1.14717
C         35.49763        19.08513        -1.26592
C         36.69555        18.35541        -1.51427
C         38.06821         1.99305        -0.47919
C         38.12612         3.39736        -0.21983
C         39.27784         1.25922        -0.76257
C         39.48679         4.03794        -0.05700
C         38.29344         6.22964         0.21373
C         38.30261         7.75789         0.16285
C         39.45990         5.51881        -0.32980
C         39.41434         8.43232        -0.48835
C         38.23158        10.56632        -0.21215
C         38.30027        12.03941        -0.22760
C         39.38014         9.83286        -0.62933
C         39.36283        12.70096        -1.01031
C         38.06099        14.83508        -1.01290
C         37.97506        16.20610        -1.42089
C         39.27053        14.08207        -1.31549
C         39.08086        16.85091        -2.06173
C         37.78869        18.95800        -2.15139
C         38.97842        18.23412        -2.42309
C         40.47562         1.90574        -0.95861
C         40.58355         3.31145        -0.78663
C         41.69491         4.03067        -1.24191
C         40.57471         6.18067        -0.82122
C         40.51062         7.65652        -1.17166
C         41.70278         5.42503        -1.25085
C         41.80461         8.41864        -1.09284
C         40.55934        10.52888        -1.09503
C         40.50632        11.93752        -1.37208
C         41.78332         9.77996        -1.16976
C         41.57694        12.60475        -2.02705
C         40.35526        14.72112        -1.98874
C         40.27752        16.12898        -2.34181
C         41.49926        13.95105        -2.31720
C         41.34516        16.80652        -2.96486
C         40.07863        18.86974        -3.05261
C         41.24202        18.15871        -3.31184
O         23.81314        11.45028         0.02034
O          4.27231        10.39121        -2.34839
O         35.17308        12.53695         1.70716
O          2.54858        14.73084        -1.90687
O         34.30553        16.97968         1.36230
O          5.31468        16.83944        -2.00596
O         13.14059        10.46054        -1.70583
O         38.64492         7.00593         1.41470
O         24.33609        13.67644         3.03110
O          8.47459         2.63084         1.46070
O         17.46027         9.21266        -1.11783
O          6.26556         3.89667         1.19495
O         11.83121        14.72586        -1.74241
O          6.50332        14.70705         0.86039
O         11.81092         5.74356        -1.56467
O         25.19201        17.11266         2.63474
O         33.20380        11.03078        -0.82378
O          5.83852        11.24032         0.71146
O         17.68351        14.59542         2.25166
O         25.85876        11.46139         3.29879
O         30.40710        16.98646         2.24506
O         20.47763        12.56768        -0.61688
O         13.81330        12.30883         1.53358
O          7.52045        18.10909        -1.80564
O          4.40987         2.92949        -2.83725
O         18.97539         3.78828         2.37872
O         24.03811         7.86621         2.84646
O         31.71674        13.51812        -0.89868
O         38.11662        12.65918         1.11540
O         32.23050         9.43635         2.51172
O         33.80685         7.42188         2.74728
H         33.58127         8.23574         3.25501
O         25.68518         8.27853        -0.40166
H         26.41364         7.88120        -0.92527
O          6.29884         7.49953        -2.50119
H          5.52333         6.98319        -2.81066
O         27.54718         9.57952         3.46392
H         27.19440        10.33593         3.99178
O          9.67433        16.92923         1.64110
H         10.41077        17.42840         2.05567
O         40.13069         7.64337        -2.60994
H         40.19175         8.56892        -2.93137
O         39.82579         3.92918         1.38088
H         39.33003         4.63144         1.85664
O         28.12389         2.66996        -1.91518
H         28.94693         3.14894        -2.15363
O         13.34177         3.52246         2.26173
H         14.09168         3.00148         2.62110
O         29.57214         5.20259         2.66980
H         29.53507         6.04008         3.18068
H          0.66256         1.44268        -2.54569
H          0.51963         3.87533        -2.29027
H          2.72173         0.18619        -2.02299
H          0.34337         5.74827        -1.70313
H          0.21001         8.14893        -1.31594
H          0.17097        10.01106        -0.48686
H          0.14237        12.43462        -0.22683
H          0.24798        14.38708         0.48353
H          0.36900        16.79907         0.86168
H          1.52579        18.96215         0.72938
H          5.28740         0.23887        -1.42687
H          3.58436        20.28182         0.47388
H          7.48516         0.40949        -0.88847
H          6.02678        20.29998         0.28812
H         10.02262         0.21726        -0.23057
H          8.60305        20.43130         0.02357
H         12.29238         0.30873         0.02385
H         11.06538        20.39060         0.13585
H         14.77048         0.31034         0.19281
H         13.50088        20.36526         0.27883
H         17.19004         0.30855         0.34743
H         15.96644        20.36598         0.29456
H         19.68827         0.31383         0.45436
H         18.44199        20.36247         0.30718
H         22.14429         0.31812         0.40529
H         20.93347        20.34718         0.28786
H         24.60840         0.33738         0.17024
H         23.40319        20.31400         0.21740
H         27.01964         0.42273        -0.36155
H         25.88119        20.29861         0.29702
H         29.50668         0.45384        -0.63370
H         28.27760        20.29318         0.13185
H         31.92710         0.37993        -0.49118
H         30.74816        20.28169        -0.09598
H         34.34458         0.32697        -0.55449
H         33.08578        20.22427        -0.70006
H         36.78428         0.26451        -0.71756
H         35.42881        20.12297        -1.62503
H         39.20295         0.17345        -0.91902
H         37.73072        20.01759        -2.44168
H         41.35486         1.34364        -1.30767
H         42.54348         3.48424        -1.68017
H         42.57153         5.94619        -1.67508
H         42.76560         7.88536        -1.09634
H         42.73503        10.32797        -1.23029
H         42.47424        12.04313        -2.31984
H         42.34720        14.42207        -2.83128
H         42.28443        16.28311        -3.18601
H         40.00158        19.93120        -3.32780
H         42.09376        18.65779        -3.79458
