         732
 CSIRO Nanostructure Databank - Neutral Graphene Oxide Data Set
C         22.97935        24.69112        -0.74006
C         21.78818        25.39638        -0.83957
C         22.96773        27.48719        -0.42670
C         21.77695        26.78328        -0.67854
C         22.96073        28.92505        -0.26303
C         21.79215        29.64484        -0.08809
C         22.97254        31.77688         0.25092
C         21.78574        31.03811         0.11911
C         22.96185        33.15201         0.65784
C         21.73536        33.84967         0.96665
C         22.96430        35.91176         1.67943
C         21.71236        35.13549         1.39645
C         22.93432        37.34492         1.18598
C         21.79799        37.96270         0.67066
C         22.93167        40.17358         0.52472
C         21.74560        39.33216         0.40688
C         22.95619        41.59904         0.00601
C         21.79992        42.22913        -0.67496
C         23.08929        44.31482        -0.85577
C         21.89361        43.51439        -1.08762
C         23.05674        45.75407        -0.97250
C         21.92948        46.43949        -1.48267
C         23.05169        48.58885        -1.33514
C         21.98822        47.83122        -1.74205
C         25.48447        23.21043        -0.60978
C         25.43937        24.62685        -0.31254
C         24.20009        25.35979        -0.47726
C         25.43867        27.46516        -0.03444
C         24.20128        26.77097        -0.32713
C         25.47142        28.87382         0.03294
C         24.26221        29.66191        -0.41325
C         25.44196        31.72897         0.29859
C         24.23980        31.07794         0.11287
C         25.45500        33.23711         0.21878
C         24.18603        33.87886         0.75253
C         25.42803        35.96979         1.07512
C         24.19849        35.21085         1.15129
C         25.42934        37.33883         1.08358
C         24.19665        38.14203         1.40633
C         25.43648        40.19420         0.64320
C         24.22506        39.49969         0.74194
C         25.48394        41.58707         0.28197
C         24.29516        42.16943        -0.43361
C         25.46822        44.40914        -0.22759
C         24.27023        43.67861        -0.45575
C         25.43449        45.83769        -0.33200
C         24.22487        46.49716        -0.62794
C         25.44183        48.71264        -0.53892
C         24.11498        47.99376        -0.45116
C         25.46561        50.11034        -0.63730
C         27.89714        23.12287        -0.21767
C         26.65627        22.52140        -0.63528
C         27.80752        24.46992         0.49097
C         26.60430        25.28574         0.07535
C         27.85764        27.40091         0.46322
C         26.63811        26.71573         0.19078
C         27.88057        28.81567         0.56914
C         26.67330        29.55801         0.34381
C         27.88577        31.66972         0.73662
C         26.68667        30.99802         0.41208
C         27.89763        33.12029         0.89465
C         26.71403        33.85888         0.75369
C         27.89543        35.93101         1.28199
C         26.70470        35.24995         1.00147
C         27.84851        37.40278         1.60273
C         26.72737        38.03796         0.79778
C         27.88529        40.22878         0.99118
C         26.68436        39.53257         0.91952
C         27.89716        41.64957         0.77105
C         26.67218        42.30895         0.38935
C         27.88125        44.46814         0.28977
C         26.68744        43.73935         0.13103
C         27.87094        45.89526         0.06782
C         26.66190        46.57809        -0.20326
C         27.90473        48.71021        -0.42238
C         26.66612        48.00331        -0.39447
C         27.90654        50.13254        -0.64986
C         26.66371        50.81048        -0.70047
C         30.35893        20.50097        -1.14401
C         29.19054        21.04136        -0.73951
C         30.33912        23.04685         0.19806
C         29.08523        22.43323        -0.31385
C         30.34242        24.50053         0.61686
C         29.09298        25.26591         0.48349
C         30.33989        27.36098         0.83556
C         29.10031        26.64867         0.58139
C         30.34124        28.77511         1.05083
C         29.09907        29.51543         0.89931
C         30.25464        31.64305         1.51469
C         29.06922        30.92099         1.01308
C         30.32969        33.10757         1.40238
C         29.11451        33.81468         1.19908
C         30.35532        35.94584         1.50457
C         29.12100        35.23439         1.32811
C         30.36642        37.39139         1.48244
C         29.15516        38.11742         1.38475
C         30.36409        40.24025         1.24570
C         29.14496        39.51969         1.21461
C         30.35569        41.67473         1.07001
C         29.11424        42.35992         0.80366
C         30.32692        44.49406         0.72641
C         29.12115        43.78530         0.60570
C         30.29149        45.96879         0.65657
C         29.08474        46.63347         0.14407
C         30.40268        48.68236        -0.29269
C         29.12618        48.00732        -0.15990
C         30.38047        50.03709        -0.87003
C         29.13791        50.81352        -0.86496
C         30.38643        52.89479        -1.28658
C         29.21720        52.19723        -1.23518
C         32.90838        19.66281        -2.68784
C         32.89039        20.59834        -1.50308
C         31.55886        21.38948        -1.36359
C         32.89773        23.17636         0.00599
C         31.63587        22.41050        -0.21480
C         32.86291        24.56882         0.52691
C         31.61843        25.23799         0.71288
C         32.78199        27.32760         1.34892
C         31.55817        26.63038         0.93636
C         32.81782        28.79386         1.35541
C         31.56920        29.45782         1.30389
C         32.82573        31.64479         1.63452
C         31.56320        30.88579         1.65317
C         32.79694        33.05632         1.68119
C         31.54832        33.78674         1.58706
C         32.80860        35.94186         1.68308
C         31.56720        35.22670         1.58932
C         32.82652        37.36845         1.64822
C         31.60176        38.09497         1.50564
C         32.82537        40.23102         1.48816
C         31.60391        39.53119         1.42010
C         32.81836        41.73455         1.61686
C         31.55547        42.39561         1.12421
C         32.82195        44.50425         0.89593
C         31.57546        43.81323         0.92844
C         32.86223        45.97593         0.87382
C         31.58687        46.74683         0.68997
C         32.88552        48.75825        -0.14870
C         31.60973        48.07569         0.03523
C         32.90910        50.10865        -0.50542
C         31.70011        50.79599        -0.94403
C         32.94931        52.86611        -1.46894
C         31.69044        52.31313        -0.81649
C         32.95982        54.07346        -2.19485
C         35.36766        19.81286        -2.81781
C         34.07838        19.27014        -3.23374
C         35.39112        20.96199        -2.01765
C         34.08992        21.54474        -1.60300
C         35.38404        23.40471        -0.41596
C         34.09927        22.80595        -0.80925
C         35.34274        24.64921         0.26873
C         34.08690        25.24654         0.64087
C         35.35599        27.37318         1.18707
C         34.12074        26.57985         1.24178
C         35.31823        28.77953         1.39607
C         34.05369        29.48416         1.48556
C         35.27941        31.63864         1.70084
C         34.05732        30.92599         1.59672
C         35.25703        33.06625         1.78459
C         34.02782        33.78334         1.74225
C         35.26772        35.93444         1.81042
C         34.03460        35.21835         1.75938
C         35.28418        37.36646         1.80138
C         34.06637        38.07520         1.73170
C         35.27057        40.23309         1.61837
C         34.06225        39.52952         1.64269
C         35.27242        41.56924         0.99916
C         34.05190        42.38509         1.04249
C         35.29886        44.44443         0.44372
C         34.06500        43.76673         0.81799
C         35.34674        45.82577         0.26660
C         34.16332        46.67130         0.54862
C         35.34706        48.67969        -0.33115
C         34.13119        48.05871         0.03904
C         35.39127        50.06606        -0.65115
C         34.17599        50.92185        -0.40930
C         35.37718        52.73531        -1.72448
C         34.15485        52.18470        -1.25207
C         35.37966        53.95502        -2.45587
C         34.14523        54.60024        -2.68503
C         37.91697        17.41543        -4.28450
C         36.68304        18.04630        -3.98934
C         37.84460        20.00412        -3.04943
C         36.60389        19.25495        -3.30570
C         37.85727        21.09010        -2.06385
C         36.60947        21.60995        -1.62860
C         37.84223        23.34813        -0.37948
C         36.60169        22.79450        -0.81488
C         37.79543        24.53163         0.50049
C         36.55141        25.31213         0.59036
C         37.82596        27.37613         1.16060
C         36.57585        26.67583         0.99968
C         37.81010        28.79639         1.33192
C         36.55041        29.49551         1.41690
C         37.74582        31.61240         1.75006
C         36.54444        30.92557         1.62183
C         37.72528        33.03782         2.09906
C         36.47857        33.80352         1.88604
C         37.77132        35.94012         1.82171
C         36.48874        35.19566         1.87903
C         37.73681        37.40619         1.98958
C         36.55229        38.08254         1.91499
C         37.83097        40.21235         1.48629
C         36.55928        39.59835         2.06916
C         37.85750        41.56575         0.92383
C         36.54910        42.17260         0.51123
C         37.79636        44.33928         0.22333
C         36.49946        43.61314        -0.01724
C         37.77734        45.71762        -0.24795
C         36.54271        46.50838        -0.14566
C         37.81301        48.59332        -0.57339
C         36.56784        47.89482        -0.37152
C         37.82774        49.97123        -0.90435
C         36.59903        50.69538        -1.01799
C         37.85248        52.65908        -1.85035
C         36.62461        52.04907        -1.49464
C         37.87482        53.92434        -2.55065
C         36.63546        54.50756        -2.94595
C         37.82866        56.03832        -4.40756
C         36.63874        55.59209        -3.85126
C         40.47430        16.15664        -5.01962
C         40.41059        17.25500        -4.13591
C         39.14199        17.94100        -3.90978
C         40.36766        19.75126        -2.60337
C         39.19327        19.29940        -3.35014
C         40.33993        20.94261        -1.88777
C         39.08787        21.63083        -1.61971
C         40.32685        23.37831        -0.33244
C         39.07284        22.77773        -0.75933
C         40.33349        24.57732         0.36448
C         39.09747        25.21854         0.85660
C         40.27094        27.39674         1.22004
C         39.06716        26.68608         1.09798
C         40.28098        28.81610         1.37238
C         39.04596        29.49931         1.39833
C         40.30034        31.66575         1.81978
C         39.04374        31.00022         1.29041
C         40.29638        32.99313         2.12656
C         39.02289        33.74398         2.27184
C         40.33868        35.93149         2.25183
C         39.06386        35.21087         1.99225
C         40.31460        37.37369         2.12626
C         39.01498        38.14764         2.31876
C         40.27788        40.13718         1.39401
C         39.01163        39.52249         1.67183
C         40.36814        41.50456         0.77151
C         39.03984        42.20902         0.66777
C         40.29635        44.41100         0.41945
C         39.08070        43.57419         0.00860
C         40.28473        45.76062         0.25447
C         39.09620        46.46848        -0.27023
C         40.22739        48.67695        -0.19951
C         39.05033        47.93779        -0.30656
C         40.28208        50.01071        -0.69247
C         39.06780        50.65098        -1.12452
C         40.35300        52.60047        -2.02584
C         39.07791        51.96135        -1.65330
C         40.40326        54.01194        -2.45742
C         39.11800        54.51037        -2.96427
C         41.02574        56.66266        -3.90267
C         39.04327        55.48977        -3.97180
C         41.14226        57.98879        -4.32330
C         42.86869        16.04615        -4.74865
C         41.69462        15.55789        -5.31591
C         42.83945        17.13218        -3.84832
C         41.60178        17.74243        -3.54480
C         42.84148        19.54641        -2.26570
C         41.54099        18.80648        -2.47221
C         42.82163        20.79669        -1.60270
C         41.57875        21.47694        -1.33251
C         42.83068        23.26879        -0.20988
C         41.58097        22.70167        -0.64518
C         42.86510        24.58912         0.38497
C         41.58799        25.19998         0.79359
C         42.78845        27.43174         1.14650
C         41.54715        26.65804         1.23228
C         42.78523        28.79002         1.42069
C         41.54133        29.52318         1.55470
C         42.76865        31.61877         2.07026
C         41.55112        30.91407         1.82287
C         42.81662        33.02074         2.24987
C         41.52420        33.72108         2.61599
C         42.80811        35.90312         2.35797
C         41.50871        35.21072         2.33453
C         42.80988        37.39989         2.13212
C         41.49928        38.07584         1.97778
C         42.72413        40.21145         1.40273
C         41.46132        39.47076         1.61989
C         42.76433        41.64943         1.89186
C         41.45988        42.35835         1.45471
C         42.76118        44.55662         1.10880
C         41.47125        43.80714         1.11033
C         42.75828        45.88236         0.83543
C         41.45596        46.57658         0.65715
C         42.71549        48.73512         0.19661
C         41.42646        48.05096         0.39640
C         42.70265        50.11777        -0.23884
C         41.50698        50.71435        -0.69980
C         42.75590        52.86528        -1.17794
C         41.62887        51.97430        -1.44858
C         42.74649        54.17523        -1.61332
C         41.60632        54.73060        -2.35928
C         42.71598        56.98127        -2.21736
C         41.75814        56.12082        -2.82112
C         42.82138        58.32554        -2.63613
C         42.03638        58.83427        -3.66433
C         45.30508        17.02176        -3.48613
C         44.08326        17.66327        -3.28372
C         45.30978        19.50375        -2.15135
C         44.06727        18.90708        -2.56251
C         45.29688        20.72951        -1.44286
C         44.05874        21.37859        -1.16799
C         45.28432        23.09188         0.25605
C         44.04025        22.60453        -0.44712
C         45.32039        24.59155         0.44481
C         44.06269        25.26505         0.59194
C         45.25389        27.32049         1.43890
C         44.06469        26.77342         0.68995
C         45.26823        28.78879         1.63577
C         44.05976        29.46960         1.63247
C         45.34528        31.56162         2.32670
C         44.02635        30.84757         2.13020
C         45.36914        33.07377         2.48613
C         44.03626        33.74057         2.19950
C         45.21342        35.83709         1.61904
C         44.04598        35.15443         2.05059
C         45.16023        37.25431         1.26312
C         44.02706        37.99533         1.53143
C         45.20735        40.26191         1.78065
C         44.00797        39.46311         1.35335
C         45.21675        41.68231         1.30200
C         44.03951        42.37717         1.45029
C         45.32971        44.56833         1.23024
C         44.01483        43.88637         1.64555
C         45.28989        45.98247         0.76842
C         43.99777        46.73597         1.04325
C         45.10285        48.74839        -0.14746
C         43.89511        48.06946         0.34440
C         45.13263        50.22222        -0.11476
C         43.89026        50.87247        -0.19590
C         45.11007        53.07608        -0.21545
C         43.78168        52.36473        -0.17510
C         44.91504        54.52166        -0.35593
C         43.80965        55.04920        -1.10240
C         44.52199        57.32545        -0.53405
C         43.67764        56.45224        -1.25221
C         46.51409        17.59101        -3.06482
C         47.80426        19.45392        -2.02646
C         46.55075        18.83893        -2.43579
C         47.78138        20.66740        -1.33886
C         46.54751        21.34285        -1.02768
C         47.80047        23.22915        -0.02381
C         46.56085        22.54087        -0.31163
C         47.79535        24.56287         0.53672
C         46.53558        25.21951         0.72586
C         47.80010        27.31497         1.44324
C         46.53613        26.56380         1.34879
C         47.77796        28.71650         1.64794
C         46.53956        29.45325         1.79080
C         47.79531        31.57718         1.79102
C         46.57831        30.84925         1.95092
C         47.78982        33.01248         1.72494
C         46.54709        33.74716         1.82509
C         47.70193        35.86122         1.29196
C         46.45255        35.09901         1.51449
C         47.61877        37.11832         0.48870
C         46.31159        37.83844         0.46739
C         47.59183        40.05474         0.23670
C         46.43553        39.27056        -0.00661
C         47.52961        41.52397         0.31366
C         46.46899        42.26667         0.82295
C         47.69517        44.44573         0.23194
C         46.55246        43.75431         0.87385
C         47.68491        45.88494         0.07758
C         46.41503        46.58861         0.27628
C         47.60766        48.78479        -0.26829
C         46.37630        47.99448        -0.20739
C         47.59353        50.17848        -0.21082
C         46.34770        50.92769        -0.09772
C         47.62816        53.02633         0.13567
C         46.32233        52.38245        -0.03919
C         47.74827        54.33128         0.64763
C         45.72401        55.44167         0.33917
C         45.52007        56.82447         0.28989
C         50.27214        19.38443        -1.99859
C         49.07561        18.88068        -2.40742
C         50.34546        20.47086        -1.01905
C         49.02263        21.20792        -0.75894
C         50.26419        23.34084        -0.14974
C         49.01214        22.61204        -0.32579
C         50.26164        24.58847         0.61705
C         49.01809        25.21159         0.88586
C         50.24126        27.29083         1.53627
C         49.01887        26.61022         1.32611
C         50.25115        28.70329         1.64747
C         49.01381        29.42593         1.65333
C         50.24387        31.55466         1.44909
C         49.01578        30.85601         1.64618
C         50.22809        32.96986         1.30234
C         49.00849        33.67697         1.45837
C         50.21955        35.82469         0.81673
C         49.01553        35.14139         1.33164
C         50.17663        37.19629         0.54210
C         48.89401        37.86352         0.08050
C         50.07243        40.04671         0.24906
C         48.85640        39.36619         0.34504
C         50.07019        41.47789        -0.12500
C         48.76323        42.23726        -0.10279
C         50.08725        44.36490        -0.33078
C         48.84385        43.71365        -0.05925
C         50.05674        45.80148        -0.78792
C         48.81618        46.55663        -0.35965
C         50.10651        48.73677        -0.43384
C         48.81571        48.02405        -0.73482
C         50.08853        50.14960        -0.33648
C         48.85217        50.88733        -0.26939
C         50.10700        52.99914        -0.02155
C         48.85488        52.30360        -0.08950
C         50.13624        54.36141         0.33640
C         48.97205        55.01060         0.72076
C         52.87060        20.51087        -0.79349
C         51.62571        21.14333        -0.68704
C         52.70856        23.06836         0.54232
C         51.59495        22.54678        -0.28002
C         52.70758        24.47860         0.93559
C         51.51487        25.17839         0.99900
C         52.78996        27.22163         1.81202
C         51.47010        26.45081         1.82372
C         52.77302        28.74517         1.78150
C         51.48608        29.43783         1.62719
C         52.71397        31.52986         1.17669
C         51.47842        30.82693         1.41924
C         52.64918        32.93136         0.91230
C         51.45556        33.66440         0.99454
C         52.62461        35.81775         0.48431
C         51.44459        35.10248         0.77103
C         52.62494        37.23388         0.37871
C         51.38235        37.93150         0.40115
C         52.54948        40.09812         0.19247
C         51.34134        39.36438         0.26666
C         52.52061        41.53553         0.10324
C         51.32984        42.24351        -0.05781
C         52.56156        44.40931        -0.29136
C         51.31229        43.67262        -0.24229
C         52.56160        45.84648        -0.44016
C         51.33706        46.56391        -0.54327
C         52.55689        48.71729        -0.45320
C         51.32895        48.00210        -0.47844
C         52.56693        50.13222        -0.36896
C         51.33525        50.85862        -0.29666
C         52.58439        52.95336        -0.30580
C         51.34863        52.27710        -0.21836
C         54.05762        21.12368        -0.39391
C         55.28650        22.99584         0.85330
C         54.03616        22.26535         0.50171
C         55.26329        24.37809         1.13196
C         53.97218        25.06128         1.53103
C         55.31569        27.27370         1.73915
C         54.01464        26.56289         1.39271
C         55.24443        28.73513         1.33124
C         54.02789        29.43035         1.38755
C         55.18487        31.54643         0.86336
C         53.95133        30.83046         1.10110
C         55.15979        32.92264         0.66139
C         53.87920        33.59724         0.46296
C         55.14392        35.82071         0.17993
C         53.86602        35.08305         0.22999
C         55.08220        37.24952        -0.01517
C         53.84448        37.94731         0.11981
C         54.99902        40.08803        -0.16712
C         53.81221        39.38868         0.08134
C         55.08534        41.52936         0.04302
C         53.77410        42.29820         0.20099
C         55.03461        44.41867        -0.17000
C         53.78538        43.73644        -0.11388
C         55.03561        45.84350        -0.30396
C         53.80916        46.53373        -0.43253
C         55.07794        48.71524        -0.34674
C         53.83217        47.99388        -0.79620
C         55.06461        50.11759        -0.23546
C         53.80854        50.84983        -0.33984
C         53.78307        52.25257        -0.36103
C         57.63461        22.87672         1.41829
C         56.48183        22.25950         0.94313
C         57.61479        24.25666         1.62785
C         56.49069        25.07373         1.36373
C         57.71536        27.23658         0.86139
C         56.57230        26.53261         1.30053
C         57.63445        28.66114         0.60921
C         56.44482        29.41010         0.91555
C         57.60839        31.53901         0.33897
C         56.42287        30.81727         0.74402
C         57.59567        32.92722         0.22404
C         56.42404        33.72168         0.71603
C         57.56276        35.81719        -0.19482
C         56.34033        35.13569         0.17573
C         57.52267        37.26044        -0.43447
C         56.27793        37.93088        -0.34322
C         57.50731        40.14151        -0.76341
C         56.20066        39.37059        -0.60305
C         57.51327        41.59377        -0.50258
C         56.31275        42.27950        -0.27816
C         57.51683        44.41518        -0.27510
C         56.28617        43.70503        -0.20570
C         57.51510        45.85021        -0.23128
C         56.29111        46.55499        -0.27746
C         57.51628        48.69986        -0.02314
C         56.29497        47.99725        -0.22493
C         57.47275        50.10564         0.12299
C         56.27969        50.79438         0.03828
C         60.61728        24.71980         0.72948
C         59.45935        25.39307         1.12279
C         59.91509        27.20457        -0.37557
C         58.99933        26.58988         0.52630
C         59.77816        28.62015        -0.65869
C         58.72134        29.35037        -0.03981
C         59.88386        31.44198        -0.65745
C         58.75832        30.77826        -0.10186
C         60.05335        32.90089        -0.46649
C         58.82330        33.67932        -0.06057
C         59.87302        35.83248        -1.10325
C         58.73276        35.11251        -0.40044
C         60.04394        37.20277        -0.41962
C         58.73983        37.97804        -0.57476
C         59.98872        40.11178        -0.69220
C         58.76925        39.38810        -0.65035
C         59.98777        41.54962        -0.63239
C         58.75689        42.28118        -0.50350
C         59.99727        44.40700        -0.34724
C         58.75760        43.70354        -0.36520
C         60.00351        45.84810        -0.17814
C         58.76580        46.55899        -0.14507
C         60.00581        48.64947         0.13041
C         58.77321        47.97664        -0.00183
C         61.39371        25.25546        -0.30082
C         61.05670        26.49779        -0.82164
C         60.76360        29.30924        -1.39338
C         60.83483        30.69491        -1.37175
C         61.15249        33.66100        -1.12048
C         61.11472        34.99319        -1.27727
C         61.23767        38.00459        -0.86087
C         61.21358        39.35686        -0.87987
C         61.19285        42.29236        -0.63031
C         61.19463        43.67035        -0.49096
C         61.21038        46.56270        -0.04622
C         61.20690        47.94683         0.11283
O         59.89363        33.33854         0.92777
O         56.69879        39.77732        -1.93535
O         30.75662        46.65677         1.89055
O         49.59257        20.25806         0.22858
O         54.56770        41.93531         1.37502
O         30.71700        31.16605         2.82917
O         46.69305        36.93019        -0.64208
O         41.58759        25.56835         2.22885
O         58.74973        24.84669         2.20191
O         46.35529        44.31062         2.25439
O         41.19592        47.52791         1.76883
O         33.41361        26.70848         2.51567
O         52.90131        28.03591         3.08713
O         35.82374        41.29536        -0.42161
O         38.40860        24.37449         1.83911
O         38.58404        35.52528         0.63191
O         45.55047        48.15547        -1.44055
O         42.99740        36.84335         3.47613
O         48.50823        35.91491         2.50527
O         46.00219        39.84419         2.61230
O         22.76583        41.38832         1.42032
O         38.62817        20.31204        -4.24602
O         53.74644        34.15515        -0.92420
O         45.71272        26.57974         2.59661
O         38.29234        33.34507         3.47696
O         51.12745        23.42490        -1.35315
O         41.01751        43.30689         2.45057
O         49.31126        41.72604        -1.37175
O         33.69397        46.55720         1.94950
O         38.55602        45.92005        -1.52678
O         32.49367        22.08514         0.92330
O         41.24764        51.77070        -2.84943
O         33.83304        22.84183        -2.27895
O         44.67188        30.94143         3.47427
O         46.66386        54.97549         1.26338
O         31.11644        50.22247        -2.14993
O         43.36650        39.97690         0.11806
O         53.08550        22.15154         1.60967
O         30.25121        23.38018         1.61702
O         40.19406        55.84585        -4.68388
O         27.51624        37.54750         3.01032
H         28.25732        37.18606         3.53959
O         33.05943        19.77633        -0.32752
H         32.96497        20.36363         0.46350
O         51.26594        25.98687         3.18924
H         51.62492        26.68427         3.78363
O         42.76204        41.56556         3.32813
H         42.80394        42.49658         3.65915
O         32.85365        41.98905         3.07596
H         32.80760        42.96154         3.20374
O         31.77765        52.62079         0.60544
H         32.67321        52.33646         0.92472
O         44.28060        27.23651        -0.69536
H         43.54831        26.89321        -1.24964
O         39.23745        43.30994        -1.43516
H         38.95427        44.14316        -1.89491
O         56.69720        33.92561         2.16769
H         57.65935        34.10137         2.26330
O         53.91638        24.82373         2.97724
H         54.59466        25.41587         3.38563
O         44.01212        47.05537         2.47072
H         43.08408        47.27656         2.72114
O         41.47075        33.64487         4.08225
H         41.36049        32.70341         4.33387
O         24.28395        38.41710         2.84706
H         23.98263        37.59883         3.31465
O         48.71220        48.07461        -2.20794
H         49.25065        47.31393        -2.55412
O         59.43116        36.13196        -2.45912
H         59.24101        35.28803        -2.91851
O         24.43643        29.82839        -1.88014
H         25.30163        30.27180        -2.01674
O         43.91131        44.04391         3.09349
H         44.83822        44.05539         3.43332
O         45.58374        33.32750         3.91068
H         45.07522        32.63652         4.39594
O         45.19507        22.53659         1.62359
H         44.47965        23.01786         2.09254
O         23.64860        48.20459         0.94104
H         22.80407        47.71468         1.03801
O         23.10387        35.97372         3.15978
H         23.24759        35.05776         3.48065
O         36.62577        39.88569         3.50393
H         37.39795        39.37895         3.86781
O         27.05178        37.78226        -0.60623
H         26.32239        38.13529        -1.15756
O         45.56117        39.73911        -0.90025
H         44.79516        39.14311        -1.03724
O         34.27225        51.40062         0.99699
H         34.33870        50.60729         1.57229
O         53.89767        48.01162        -2.28128
H         53.82185        48.94875        -2.56229
O         40.84702        41.29623        -0.59141
H         40.34118        41.89457        -1.19661
O         27.58665        24.13301         1.90736
H         28.42135        23.70257         2.21831
O         48.99408        37.76441        -1.37211
H         48.08541        37.60237        -1.71971
O         39.08838        31.28181        -0.16828
H         38.31454        30.83745        -0.57638
O         24.43551        41.72887        -1.83234
H         25.22529        42.17383        -2.20640
O         25.46905        33.52726        -1.22794
H         24.64765        33.14597        -1.60641
O         31.30020        22.12571        -2.57938
H         32.13990        22.58978        -2.82709
O         43.20012        52.70772         1.14686
H         43.85520        52.45325         1.83150
O         60.22708        36.93788         1.00203
H         60.39471        37.79291         1.45017
O         41.30092        18.06410        -1.21569
H         41.38553        18.70272        -0.47547
O         49.96081        45.69605        -2.29174
H         49.34422        44.95804        -2.49298
O         55.42246        27.23430         3.21762
H         54.59986        27.68136         3.55222
O         36.34347        43.53896        -1.47119
H         36.05940        42.61628        -1.67966
O         38.94177        38.37860         3.77870
H         39.80341        38.74902         4.07035
H         22.95199        23.60020        -0.85176
H         20.84992        24.86228        -1.04325
H         20.82492        27.32127        -0.77662
H         20.82402        29.12549        -0.05917
H         20.81242        31.52876         0.24753
H         20.77844        33.32217         0.84988
H         20.75030        35.59390         1.66767
H         20.87459        37.37734         0.54476
H         20.77866        39.79764         0.17328
H         20.84760        41.68610        -0.75867
H         21.01499        43.98965        -1.54485
H         21.03169        45.88856        -1.78923
H         23.06099        49.66674        -1.54732
H         21.16105        48.29975        -2.29535
H         24.56947        22.69439        -0.92623
H         24.52435        50.67535        -0.66454
H         26.65972        21.48275        -0.99362
H         26.63682        51.90366        -0.79658
H         30.42222        19.43586        -1.40796
H         28.29413        20.40635        -0.68064
H         30.34957        53.96060        -1.55339
H         28.28580        52.72887        -1.47922
H         31.95821        19.24348        -3.04932
H         32.02397        54.61978        -2.37256
H         34.06638        18.53918        -4.05508
H         34.10707        55.55067        -3.23333
H         37.87052        16.42041        -4.74825
H         35.76294        17.49840        -4.23471
H         37.83085        56.80365        -5.19408
H         35.69515        56.03959        -4.18841
H         39.56166        15.77851        -5.49860
H         40.55073        58.34055        -5.17788
H         43.82040        15.56954        -5.01650
H         41.73441        14.70816        -6.01128
H         43.56353        58.98829        -2.17452
H         42.14912        59.88007        -3.98025
H         45.34631        16.04903        -3.99333
H         44.37455        58.41138        -0.58274
H         47.44160        17.03480        -3.25342
H         46.14257        57.49169         0.89904
H         51.20440        19.00174        -2.43861
H         49.08245        18.04742        -3.12363
H         51.08926        54.90017         0.40688
H         49.00025        56.03475         1.11373
H         52.92586        19.53265        -1.29416
H         52.62056        54.05001        -0.32401
H         55.01925        20.72793        -0.74847
H         54.71941        52.82379        -0.40820
H         58.54375        22.30096         1.63166
H         56.47736        21.17922         0.74566
H         58.39290        50.67335         0.31172
H         56.28823        51.88332         0.17576
H         60.90334        23.78960         1.23610
H         60.03631        49.74042         0.24585
H         62.29368        24.73274        -0.65128
H         61.72429        26.94776        -1.56656
H         61.54171        28.75865        -1.93625
H         61.66584        31.19774        -1.88409
H         62.07618        33.11824        -1.37396
H         61.98612        35.49536        -1.72554
H         62.18793        37.47829        -1.03315
H         62.14009        39.89940        -1.11519
H         62.15807        41.77805        -0.72583
H         62.16243        44.18856        -0.49435
H         62.17360        46.03665        -0.05738
H         62.15783        48.48666         0.21928
