         470
 CSIRO Nanostructure Databank - Neutral Graphene Oxide Data Set
C         38.82214        50.31268        -4.06339
C         37.74451        51.04699        -4.54664
C         38.38523        52.89754        -3.14014
C         37.52717        52.34982        -4.09058
C         41.18539        48.82864        -3.24671
C         40.90328        50.09545        -2.68513
C         39.71210        50.84844        -3.10659
C         40.32027        52.72572        -1.54615
C         39.47267        52.16538        -2.63415
C         40.35059        54.18871        -1.31596
C         43.32206        48.71192        -2.10122
C         42.34889        48.14008        -2.94609
C         43.06799        49.98169        -1.53218
C         41.85300        50.65850        -1.79373
C         42.60890        52.65878        -0.33346
C         41.52731        51.92865        -1.09009
C         42.51387        54.14508        -0.08418
C         41.33679        54.83117        -0.66044
C         45.91638        45.96307        -1.64705
C         44.85853        46.70752        -2.17578
C         45.27760        48.50642        -0.59111
C         44.50696        47.97844        -1.67348
C         45.33125        49.92250        -0.29320
C         44.19581        50.69033        -0.87103
C         45.05295        52.73073         0.51534
C         43.99297        52.10227        -0.42066
C         45.00517        54.26038         0.42816
C         43.76943        54.91382         0.20541
C         44.80854        57.03434         0.79275
C         43.70749        56.30853         0.34966
C         47.88729        44.33020        -0.13340
C         47.67193        45.65373         0.18267
C         46.54153        46.36314        -0.44274
C         47.57955        48.59634         1.26497
C         46.07271        47.57036         0.09822
C         47.51598        50.01504         1.04669
C         46.39509        50.59663         0.36989
C         47.62284        52.87377         0.71737
C         46.47879        52.08482         0.06491
C         47.45084        54.33369         1.02249
C         46.13313        55.00848         0.83666
C         47.13660        57.15434         1.77837
C         46.03104        56.40065         1.05294
C         47.21069        58.63029         1.45046
C         50.18819        44.30170         0.65463
C         49.10835        43.63684         0.15343
C         50.05595        45.68931         1.13074
C         48.69054        46.37055         1.01109
C         49.94165        48.49851         1.74821
C         48.73719        47.84868         1.18657
C         49.85024        49.99482         2.01678
C         48.69116        50.75591         1.44451
C         49.90824        52.90942         1.77817
C         48.74826        52.14527         1.34630
C         49.85383        54.38157         1.85041
C         48.57056        55.07959         1.66435
C         49.72054        57.24159         1.64381
C         48.47140        56.44548         1.71102
C         49.68166        58.72402         1.42042
C         48.33922        59.34873         1.36800
C         52.88150        41.74087         0.20470
C         51.69897        42.24644         0.69039
C         52.59996        44.59081         0.36987
C         51.53397        43.70256         0.97834
C         52.53228        45.92480         0.68418
C         51.29979        46.51041         1.23213
C         52.53052        48.56723         1.93912
C         51.25038        47.82636         1.60901
C         52.42950        50.09385         1.88557
C         51.13808        50.75085         2.37828
C         52.31324        52.94270         2.44146
C         51.07602        52.23072         2.07416
C         52.24865        54.44336         2.57625
C         50.97071        55.10754         2.22643
C         52.20173        57.39774         2.22952
C         50.93502        56.59093         2.22104
C         52.18466        58.74717         1.56118
C         50.92542        59.52950         1.60215
C         52.26425        61.59546         1.43234
C         51.00833        60.89130         1.49804
C         55.28743        40.48294        -0.96679
C         55.03829        41.93810        -1.03796
C         53.90496        42.55085        -0.33456
C         54.84108        44.90092        -0.80150
C         53.59581        44.00984        -0.61514
C         54.87275        46.29253        -0.23055
C         53.67931        46.81242         0.50787
C         54.96036        48.78848         1.22369
C         53.69360        48.03470         1.11256
C         54.91379        50.21223         1.67094
C         53.59749        50.85815         1.90811
C         54.79385        53.04835         2.03902
C         53.59859        52.26920         2.13974
C         54.76204        54.44223         2.15004
C         53.54755        55.20091         2.50662
C         54.74451        57.44535         1.94567
C         53.53178        56.70497         2.37406
C         54.74868        58.76313         1.63466
C         53.48253        59.48345         1.37111
C         54.78350        61.64298         1.31290
C         53.48241        60.95889         1.36822
C         54.83934        63.06045         1.21734
C         57.53247        40.74717        -2.00328
C         56.38766        39.94210        -1.51439
C         57.55906        42.17869        -1.60069
C         56.23209        42.80904        -1.43531
C         57.46774        44.98267        -0.82617
C         56.17669        44.28014        -1.16401
C         57.39850        46.30226        -0.15174
C         56.19079        46.92686         0.04387
C         57.41756        48.99973         0.81718
C         56.12486        48.39992         0.33163
C         57.37761        50.34808         1.24710
C         56.12176        51.03774         1.47176
C         57.30062        53.15425         1.83013
C         56.07992        52.39898         1.74490
C         57.28048        54.52080         2.05506
C         55.99137        55.20868         1.89372
C         57.27458        57.43066         2.05441
C         56.01035        56.68719         1.82566
C         57.24242        58.78591         1.85660
C         56.03406        59.42284         1.19311
C         57.24583        61.62110         1.22457
C         55.99988        60.93048         1.31269
C         57.26333        63.02183         0.97434
C         56.03255        63.72270         1.00583
C         60.09547        37.92655        -1.81154
C         58.92062        38.55597        -2.05719
C         60.12975        40.78660        -2.05945
C         58.85340        40.01627        -2.24525
C         60.06050        42.23426        -1.58578
C         58.73792        42.86501        -1.32892
C         59.92286        44.88029        -0.45407
C         58.74355        44.22232        -0.82298
C         59.86659        46.26009        -0.00138
C         58.66300        46.94728         0.17429
C         59.85597        48.98549         1.02021
C         58.64155        48.31829         0.66487
C         59.81094        50.34811         1.41726
C         58.59638        51.03065         1.47128
C         59.77459        53.09155         2.32491
C         58.62866        52.52739         1.51070
C         59.66987        54.50966         2.69087
C         58.46483        55.27303         2.32434
C         59.74686        57.38126         2.38822
C         58.49119        56.68441         2.35183
C         59.76511        58.85398         2.27855
C         58.44804        59.60120         2.04151
C         59.73390        61.57935         1.23731
C         58.49680        60.94436         1.44645
C         59.73490        62.92724         0.71873
C         58.51869        63.65628         0.64126
C         59.70777        65.53693        -0.35035
C         58.54893        64.98916         0.14827
C         62.62818        36.53989        -2.35047
C         62.64997        37.85614        -1.60850
C         61.34636        38.63785        -1.73462
C         62.58982        40.75461        -1.48159
C         61.36978        40.01916        -1.78624
C         62.49353        42.12057        -0.96782
C         61.25993        42.82693        -0.94668
C         62.38424        44.74458         0.05491
C         61.19995        44.15594        -0.46008
C         62.43607        46.19497         0.32845
C         61.13116        46.98132         0.26665
C         62.29191        48.84613         1.44164
C         61.11085        48.29493         0.92896
C         62.32931        50.29220         1.77140
C         61.05622        51.09359         1.70803
C         62.22213        53.06262         2.81206
C         60.98176        52.42415         2.38079
C         62.26386        54.49012         2.78294
C         61.00386        55.26773         2.77075
C         62.19451        57.38790         2.11431
C         60.97581        56.69699         2.40350
C         62.20078        58.76084         1.85825
C         60.99874        59.53186         1.85263
C         62.24227        61.51984         1.05110
C         60.98701        60.87288         1.42174
C         62.20072        62.81758         0.39563
C         60.95108        63.51689         0.25276
C         62.11250        65.32946        -0.98154
C         60.92638        64.80481        -0.35174
C         62.12391        66.57726        -1.66261
C         65.07649        36.51527        -2.40518
C         63.77755        35.93954        -2.72121
C         65.16492        38.03950        -2.27297
C         63.77145        38.71945        -2.20614
C         65.00077        40.61137        -0.93381
C         63.80148        40.07343        -1.51556
C         65.01220        42.06908        -0.53119
C         63.64466        42.71121        -0.40972
C         64.73130        44.55211         0.88393
C         63.57901        43.99951         0.16372
C         64.67640        45.89317         1.39181
C         63.53934        46.74014         1.13789
C         64.49327        48.52972         2.61014
C         63.45747        48.03723         1.65584
C         64.50603        49.98809         2.99371
C         63.40189        50.85500         2.60112
C         64.63136        52.70665         3.54822
C         63.38862        52.19797         3.01024
C         64.68247        54.82825         3.13979
C         63.44554        55.27493         2.66343
C         64.74626        57.26147         1.92759
C         63.42656        56.54681         1.85093
C         64.77452        58.73053         1.93078
C         63.47906        59.50148         1.80442
C         64.74508        61.54544         0.99107
C         63.46025        60.87485         1.26854
C         64.68729        62.81293         0.16042
C         63.36263        63.37300        -0.16181
C         64.48832        65.02650        -1.62170
C         63.31576        64.57457        -0.93334
C         64.47221        66.29128        -2.27875
C         63.26873        67.05044        -2.26445
C         67.36174        33.55774        -2.42852
C         66.25359        34.31790        -2.56594
C         67.47249        36.33550        -1.75714
C         66.18750        35.72566        -2.20616
C         67.48565        37.77938        -1.35480
C         66.10439        38.37673        -1.08562
C         67.24805        40.34770         0.10387
C         66.13115        39.84705        -0.71392
C         67.11230        41.55310         0.78239
C         65.77915        42.26397         0.76792
C         66.91220        44.18072         1.96067
C         65.84546        43.72729         1.13641
C         66.66258        45.39738         2.63913
C         65.72388        46.34627         2.23599
C         67.03647        48.39718         3.43457
C         65.71317        47.69184         2.89328
C         67.09941        49.89739         3.08357
C         65.87018        50.67321         3.29774
C         67.14497        52.91510         3.28536
C         65.87779        52.13837         3.30558
C         67.16469        54.46241         2.88114
C         65.92593        55.22280         2.61736
C         67.22120        57.14901         1.72609
C         65.94923        56.53962         2.02568
C         67.24930        58.51152         1.29164
C         66.07239        59.37310         1.55005
C         67.15782        61.19700         0.12224
C         66.04899        60.78484         1.01002
C         67.03535        62.34786        -0.69603
C         65.83225        63.14783        -0.71137
C         66.75078        64.50761        -2.55356
C         65.67932        64.21451        -1.59911
C         66.74758        65.91469        -3.24272
C         65.66408        66.82489        -2.88880
C         67.01892        68.65976        -3.75798
C         65.85513        68.19142        -3.15537
C         70.07772        32.18229        -2.76195
C         69.92115        33.54758        -2.24150
C         68.57388        33.94117        -1.61202
C         69.79796        36.07671        -0.72174
C         68.55305        35.43385        -1.22879
C         69.90105        37.55382        -0.47680
C         68.66929        38.39088        -0.65195
C         69.56327        40.01412         0.96832
C         68.48104        39.58455         0.20228
C         69.44289        41.24513         1.78178
C         68.15024        42.04382         1.70933
C         69.39596        44.10548         2.46459
C         68.16223        43.47422         2.12221
C         69.52362        45.54007         2.70289
C         68.45464        46.33420         3.19520
C         69.50495        48.41779         2.64769
C         68.33326        47.70845         3.03755
C         69.49640        49.84522         2.58111
C         68.26902        50.57778         2.85557
C         69.55293        52.73553         2.39805
C         68.44057        52.06765         3.19782
C         69.63201        54.21457         2.32370
C         68.40303        55.03912         2.30542
C         69.65482        56.95254         1.29665
C         68.42011        56.34567         1.78255
C         69.67738        58.39216         0.94360
C         68.40533        59.13192         0.80996
C         69.48294        60.86732        -0.60847
C         68.36872        60.42565         0.15112
C         69.35403        61.97184        -1.49385
C         68.13929        62.72889        -1.53506
C         69.15494        64.28338        -3.17229
C         68.04018        63.83475        -2.41512
C         69.15452        65.56929        -3.82573
C         68.02928        66.43963        -3.71496
C         69.32004        68.29963        -4.70891
C         68.11999        67.81024        -4.05250
C         69.43138        69.64281        -5.14019
C         72.50412        32.29212        -2.51048
C         71.30707        31.64122        -2.97209
C         72.45232        33.46346        -1.82233
C         71.20058        34.21633        -1.69900
C         72.08564        35.82085         0.06704
C         71.08004        35.32961        -0.72229
C         71.94913        37.06119         0.78423
C         70.92204        37.94674         0.52015
C         71.90213        39.88808         1.70856
C         70.80908        39.28256         1.06907
C         71.87168        41.22468         2.12271
C         70.68227        41.96593         2.12896
C         71.86905        44.10479         2.33163
C         70.64200        43.37903         2.35900
C         71.91964        45.47878         2.28569
C         70.73201        46.24302         2.45862
C         71.90459        48.42564         2.18910
C         70.72096        47.68839         2.43903
C         71.87868        49.80218         2.08013
C         70.67445        50.53064         2.23913
C         71.72824        52.55964         1.25820
C         70.64607        51.97793         2.02270
C         71.81951        53.88955         1.03390
C         70.88551        54.82494         1.66680
C         71.99713        56.77614         0.54740
C         70.82350        56.21954         1.17237
C         72.04244        58.04573         0.07102
C         70.93621        58.97636         0.32054
C         71.64459        60.31454        -1.71905
C         70.88666        60.31311        -0.41682
C         71.45962        61.31991        -2.60050
C         70.39907        62.28768        -2.41882
C         71.45089        63.92471        -3.96528
C         70.33657        63.47606        -3.19725
C         71.45082        65.16224        -4.56804
C         70.33550        66.03913        -4.46948
C         71.52795        67.88010        -5.67171
C         70.39491        67.39900        -4.96812
C         71.60712        69.19747        -6.09229
C         70.55529        70.08761        -5.81850
O         54.57063        46.05187        -1.65260
O         62.00526        51.12486         0.58130
O         52.20652        53.59333         3.76493
O         42.21477        53.14847         0.96050
O         70.75371        54.74179         3.11808
O         49.55510        49.04341         3.08175
O         67.39326        45.65191         3.80080
O         68.75286        35.56175         0.22137
O         56.87998        45.03417        -2.18767
O         64.61636        53.93159         4.20675
O         44.44257        51.89614        -1.76285
O         70.66416        59.15676         1.74949
O         51.39371        57.29708         3.43218
O         67.88461        37.38399        -2.70716
O         60.21864        54.93167         3.96744
O         66.45931        60.50288         2.38867
O         46.38391        47.89233         1.41443
O         55.27026        49.09608         2.62136
O         60.30414        41.88164        -2.99697
O         64.59804        47.72162         3.84197
O         55.98468        55.92350         0.54736
O         40.27642        51.88529        -0.34137
O         49.12018        45.73304         2.26353
O         44.86622        52.35816         1.81252
O         64.17782        59.35942         3.11802
O         49.89978        57.77654         0.28403
O         70.58178        34.58627        -2.99744
O         66.30750        64.69364        -3.92456
O         59.04995        59.52736         3.37187
O         64.98470        50.16955         4.35539
O         62.07930        46.97382        -0.86283
O         68.43376        41.13966         2.84921
O         48.07523        53.88488        -0.26369
O         58.00901        40.43817        -3.35201
O         52.79890        58.81160         0.23477
O         55.22226        42.43722        -2.42998
O         69.81455        38.49556        -1.58108
O         53.74046        56.08371         3.67996
O         64.93376        62.85794         1.61224
O         67.29338        53.96754         4.26741
O         63.29294        56.12396         0.42907
H         62.49729        55.55338         0.36002
O         56.18264        59.15239        -0.23784
H         56.02905        58.19202        -0.37938
O         65.65700        37.65797         0.09183
H         64.67794        37.77800         0.18984
O         58.91749        52.94429         0.12228
H         59.69214        52.42618        -0.18800
O         68.47725        33.14028        -0.40685
H         68.52235        33.76758         0.35655
O         71.56407        61.27569         0.45076
H         71.28578        61.05612         1.37013
O         46.70086        52.16352        -1.33185
H         47.10581        53.04467        -1.52155
O         68.95132        52.00474         4.55801
H         68.81005        52.89346         4.95932
O         63.32308        38.95041        -3.55743
H         64.13170        39.10406        -4.10081
O         52.80660        48.24243         3.33499
H         53.72054        48.57316         3.52470
O         64.99212        41.62706         1.81924
H         65.54171        41.59215         2.63131
O         55.80714        49.03387        -0.95265
H         56.26338        48.53808        -1.66594
O         62.91794        37.61777        -0.19826
H         62.32015        36.90975         0.11960
O         65.73450        42.80071        -1.55859
H         65.26201        42.67915        -2.40874
O         46.74764        57.12372         3.19353
H         46.51053        56.20129         3.42844
O         65.75252        38.58051        -3.47750
H         66.62924        38.14047        -3.62101
O         52.89742        43.99265        -1.89635
H         53.54034        43.64413        -2.55869
O         66.96386        48.33976         4.86523
H         66.06106        48.64732         5.12065
O         51.68168        43.81045         2.43830
H         50.83134        44.11144         2.82546
O         51.26588        50.72433         3.82477
H         50.91765        49.84915         4.12240
H         38.96438        49.29396        -4.44612
H         37.06744        50.60063        -5.28777
H         38.18301        53.91164        -2.77056
H         36.67643        52.93503        -4.46524
H         40.47105        48.35450        -3.93124
H         39.53881        54.79418        -1.74415
H         42.51263        47.14622        -3.38375
H         41.27920        55.92675        -0.58777
H         46.21731        45.03047        -2.14419
H         44.32136        46.30548        -3.04546
H         44.69203        58.11188         0.96534
H         42.76418        56.84453         0.18234
H         47.11769        43.78484        -0.69775
H         46.25276        59.16861         1.40348
H         49.19375        42.57978        -0.13581
H         48.27937        60.43552         1.20456
H         53.00479        40.64817         0.19462
H         50.93727        41.55758         1.08262
H         52.21184        62.69303         1.41740
H         50.09056        61.49610         1.46251
H         54.51223        39.82202        -0.55673
H         53.91021        63.64525         1.24521
H         56.47013        38.84774        -1.54859
H         56.01349        64.81249         0.87183
H         60.09446        36.83353        -1.69513
H         58.01175        37.95847        -2.20449
H         59.67554        66.55270        -0.76518
H         57.62495        65.58079         0.11042
H         61.67049        36.05630        -2.59006
H         61.21196        67.18594        -1.71544
H         63.73490        34.95611        -3.21375
H         63.23741        68.01806        -2.78349
H         67.32810        32.51849        -2.78826
H         65.38322        33.87860        -3.07573
H         67.08821        69.73348        -3.97562
H         65.06686        68.91327        -2.90071
H         69.17513        31.58395        -2.95225
H         68.61574        70.35254        -4.94826
H         73.46165        31.76391        -2.62105
H         71.39473        30.63137        -3.39747
H         73.35693        33.85873        -1.33805
H         73.04670        35.29168         0.14176
H         72.74648        37.33170         1.49057
H         72.85006        39.33926         1.79064
H         72.80992        41.67416         2.47376
H         72.81325        43.55291         2.23977
H         72.89150        45.97308         2.16096
H         72.86295        47.90473         2.06524
H         72.82091        50.33174         1.88895
H         72.44510        51.89012         0.76469
H         72.56819        54.26421         0.32334
H         72.88288        56.13963         0.42381
H         72.94187        58.39268        -0.45502
H         72.43049        59.56999        -1.90448
H         72.07915        61.37083        -3.50741
H         72.35530        63.30444        -4.02421
H         72.35654        65.48421        -5.09823
H         72.36365        67.20517        -5.89864
H         72.49414        69.54726        -6.63797
H         70.62008        71.13335        -6.14870
