         477
 CSIRO Nanostructure Databank - Neutral Graphene Oxide Data Set
C         28.67088        28.06528        -2.65812
C         28.55407        29.41510        -2.16252
C         27.51025        30.27360        -2.56617
C         28.32552        32.01800        -1.06775
C         27.40588        31.55244        -2.03504
C         28.11578        33.33121        -0.39025
C         27.29696        34.38092        -1.04484
C         27.81656        35.97705         0.81947
C         27.16334        35.60063        -0.50520
C         27.89515        37.47466         0.94405
C         26.66472        38.20820         0.80649
C         27.82294        40.30196         1.48749
C         26.60616        39.53863         1.04786
C         27.82643        41.73910         1.01917
C         26.64167        42.48555         1.01491
C         27.84819        44.46977         0.29691
C         26.64954        43.83730         0.67326
C         27.83301        45.84834        -0.15254
C         30.70569        27.67542        -1.33721
C         29.67201        27.23478        -2.24655
C         30.63801        29.05270        -0.87876
C         29.50636        29.88753        -1.22560
C         30.31100        31.52872         0.47440
C         29.38401        31.18706        -0.67420
C         30.33152        32.99513         0.90492
C         29.10690        33.81409         0.64325
C         30.32383        35.92061         1.21583
C         29.16838        35.27811         0.91867
C         30.34436        37.39725         1.57008
C         29.09268        38.14408         1.16351
C         30.33954        40.27669         1.12052
C         29.11027        39.56456         1.20337
C         30.30426        41.67474         0.90083
C         29.06408        42.37973         0.75290
C         30.29721        44.37083        -0.11319
C         29.06739        43.74954         0.33907
C         30.18341        45.65700        -0.84294
C         28.92533        46.41242        -0.71358
C         32.85253        24.64903        -0.86312
C         31.83088        25.45606        -1.26380
C         32.76500        27.39713         0.08745
C         31.73534        26.83622        -0.88966
C         33.02569        28.85861        -0.28364
C         31.74067        29.63849        -0.25592
C         32.87676        31.62834         0.61500
C         31.70187        30.97121         0.23848
C         32.90612        33.03736         0.93251
C         31.61123        33.71306         1.20127
C         32.79647        35.88290         0.66436
C         31.65836        35.21654         1.45473
C         32.77538        37.38526         0.86934
C         31.61828        38.09698         1.12910
C         32.81522        40.24883         0.94439
C         31.60005        39.54198         1.07510
C         32.83777        41.73413         1.02035
C         31.53185        42.53872         1.04149
C         32.76648        44.42577        -0.22899
C         31.51904        43.76130         0.12122
C         32.73390        45.74235        -0.74610
C         31.49961        46.39829        -1.16772
C         32.61399        48.63057        -1.11167
C         31.52802        47.87041        -1.35238
C         35.30248        22.93534        -0.26341
C         35.18336        24.31097         0.25512
C         33.96197        25.15195        -0.03283
C         35.23766        27.23257         0.52382
C         34.07148        26.62536         0.13622
C         35.20533        28.64554         1.06976
C         34.09804        29.48842         0.53559
C         35.32699        31.52273         1.09274
C         34.11188        30.86054         0.73617
C         35.41026        32.99991         0.80221
C         34.09816        33.74175         0.96159
C         35.33226        35.88208         1.00809
C         34.13752        35.19707         0.96047
C         35.37964        37.33605         0.73357
C         34.02178        38.10214         0.61353
C         35.29266        40.21569         0.68638
C         34.03527        39.55171         0.77756
C         35.31631        41.59475         0.38748
C         34.09513        42.41011         0.53030
C         35.24803        44.34887        -0.57687
C         34.01291        43.76379        -0.02765
C         35.27096        45.83865        -0.79200
C         33.97153        46.53972        -0.90207
C         35.20842        48.80155        -0.64736
C         33.90623        48.02863        -0.69259
C         35.28038        50.25992        -0.89594
C         37.76474        22.89723        -0.10322
C         36.49095        22.29205        -0.39834
C         37.78031        24.29752         0.41593
C         36.45769        25.02972         0.60389
C         37.71639        27.16023         0.78034
C         36.49731        26.50332         0.62777
C         37.74868        28.59775         1.15165
C         36.51870        29.38381         1.06608
C         37.80876        31.48982         1.46597
C         36.53193        30.77419         1.15304
C         37.80225        32.95716         1.75461
C         36.50347        33.75638         1.60526
C         37.88371        35.90992         1.52267
C         36.67796        35.15335         0.97626
C         37.68343        37.39625         1.88790
C         36.56926        38.12238         1.11542
C         37.62902        40.41161         1.49604
C         36.52410        39.49620         0.99318
C         37.73037        41.67225         0.61994
C         36.56370        42.25892         0.17079
C         37.82051        44.37763        -0.48926
C         36.55190        43.61080        -0.44626
C         37.79508        45.86970        -0.51272
C         36.50411        46.60706        -0.43099
C         37.69920        48.76886        -0.70599
C         36.52074        48.08474        -0.66223
C         37.74858        50.15434        -1.31742
C         36.44045        50.88862        -1.13917
C         40.27928        20.13380        -0.49174
C         39.07035        20.78783        -0.41530
C         40.21572        22.95756         0.07388
C         38.96538        22.19806        -0.17908
C         40.18528        24.42736        -0.30305
C         38.98374        25.12393         0.26683
C         40.22234        27.25609         0.38276
C         38.98064        26.48254         0.54562
C         40.25092        28.65195         0.52996
C         39.08353        29.36583         1.05700
C         40.22070        31.56356         0.75981
C         39.08036        30.83672         1.07026
C         40.44511        32.98730         1.32399
C         39.13960        33.71785         1.95677
C         40.41343        35.89315         1.82784
C         39.05994        35.22583         1.63949
C         40.31057        37.42045         1.73486
C         39.00796        38.16845         1.86545
C         40.24507        40.41551         1.42589
C         38.96416        39.69144         1.69485
C         40.26733        41.86053         0.99799
C         38.95237        42.48160         0.59908
C         40.28012        44.45511        -0.32679
C         38.98276        43.76832        -0.13064
C         40.31744        45.91241        -0.71203
C         39.01964        46.67003        -0.94112
C         40.25928        48.85802        -0.64581
C         39.00379        48.07775        -0.31690
C         40.22696        50.22307        -0.71364
C         38.99781        50.95309        -0.95425
C         40.31841        53.00971        -1.25567
C         39.07917        52.31071        -1.21532
C         42.74715        20.21298        -0.70073
C         41.53125        20.81493        -0.39384
C         42.75403        23.03683        -0.27268
C         41.53249        22.24323        -0.03429
C         42.69806        24.43487        -0.20785
C         41.48016        25.15410        -0.06175
C         42.66851        27.32322        -0.05140
C         41.44438        26.55622         0.07761
C         42.60813        28.73675        -0.13635
C         41.40356        29.44505         0.17011
C         42.49791        31.68130        -0.31018
C         41.36773        30.86658         0.23247
C         42.44871        33.19173        -0.22898
C         41.19862        33.91734         0.33348
C         42.70117        35.94340         0.79015
C         41.49792        35.28664         0.93183
C         42.79262        37.39843         1.01179
C         41.48026        38.12287         1.10574
C         42.68111        40.34717         0.85791
C         41.43150        39.60950         1.01323
C         42.71058        41.70091         0.55453
C         41.51962        42.47121         0.52984
C         42.73306        44.55439        -0.02104
C         41.53793        43.82986         0.12059
C         42.73256        45.97932        -0.21682
C         41.54728        46.67138        -0.45159
C         42.79258        48.85286        -0.34866
C         41.56836        48.12173        -0.85494
C         42.77205        50.26555        -0.35169
C         41.45892        51.01890        -0.32696
C         42.77768        53.04279        -1.01697
C         41.51789        52.38992        -0.94422
C         43.95486        20.94344        -0.66849
C         45.24545        23.06479        -0.29737
C         43.98826        22.32641        -0.46039
C         45.19848        24.43769        -0.11634
C         43.95986        25.19139        -0.51321
C         45.12133        27.39632        -0.22165
C         43.91449        26.65315        -0.15403
C         45.09757        28.76549        -0.47481
C         43.80929        29.44190        -0.58987
C         45.09666        31.66868        -0.56964
C         43.80311        30.98821        -0.66782
C         45.07682        33.14083        -0.48902
C         43.77363        33.93046        -0.31980
C         45.13766        35.91548         0.27828
C         43.89956        35.29162         0.25491
C         45.30253        37.33229         0.81516
C         43.96260        38.08798         0.84483
C         45.03692        40.41115         1.05768
C         43.91789        39.57411         0.51259
C         45.21736        41.70736         0.72146
C         44.00062        42.35201         0.17203
C         45.28326        44.57197         0.15549
C         44.01668        43.83726        -0.01024
C         45.21739        45.96543         0.06951
C         43.99195        46.69487        -0.10256
C         45.18867        48.86338         0.31558
C         43.98000        48.11617        -0.11220
C         45.19217        50.36679         0.21446
C         43.95999        51.03053        -0.26050
C         43.94394        52.40326        -0.62707
C         47.68869        23.08080        -0.01841
C         46.51213        22.39102        -0.19396
C         47.70538        24.49322         0.17973
C         46.41051        25.16442         0.24805
C         47.66745        27.36906        -0.15805
C         46.39957        26.72249         0.09392
C         47.67335        28.75071        -0.66573
C         46.32551        29.50139        -0.81019
C         47.58693        31.64870        -0.76760
C         46.33152        30.98200        -0.71551
C         47.58341        33.12871        -0.72116
C         46.35186        33.82843        -0.24937
C         47.67157        35.88032        -0.13759
C         46.35675        35.18159        -0.00537
C         47.73471        37.35054        -0.15938
C         46.45126        38.12402         0.08598
C         47.79398        40.22357         0.47106
C         46.83117        39.35587         0.87409
C         47.80060        41.65396         0.94418
C         46.46997        42.48832         1.11233
C         47.73352        44.54283         0.34203
C         46.52989        43.87010         0.42559
C         47.77916        45.96453        -0.04702
C         46.47334        46.71685        -0.07483
C         47.68486        48.91091        -0.35354
C         46.54628        48.15542         0.39456
C         47.67051        50.36876         0.06543
C         46.52126        51.04020         0.23159
C         50.15040        24.62011         0.52050
C         48.88783        25.26113         0.31071
C         50.11831        27.41651         0.02636
C         48.87482        26.69561         0.11238
C         50.11358        28.83975        -0.21681
C         48.89544        29.53504        -0.47977
C         50.10453        31.65097        -0.61743
C         48.85594        30.95068        -0.65043
C         50.16800        33.09763        -1.04191
C         48.88916        33.86547        -0.74050
C         50.25221        35.88417         0.27489
C         48.90423        35.07239         0.20679
C         50.19416        37.39185         0.10625
C         49.03109        38.07659        -0.01082
C         50.27568        40.31736        -0.07557
C         48.99023        39.57415        -0.12345
C         50.30012        41.76798         0.27025
C         49.07710        42.43068         0.80713
C         50.23828        44.65529         0.31044
C         49.03153        43.96564         0.90339
C         50.25550        46.05781         0.21006
C         49.01610        46.77356         0.11211
C         50.23971        48.83691        -0.17249
C         49.00300        48.16481        -0.09981
C         51.32239        25.31919         0.49279
C         52.59032        27.41843         0.09085
C         51.35281        26.72911         0.21588
C         52.59900        28.82657        -0.20263
C         51.34364        29.54299        -0.27843
C         52.58015        31.67138        -0.53412
C         51.33849        30.95986        -0.49417
C         52.62954        33.09310        -0.53408
C         51.40647        33.85142        -0.61395
C         52.64702        36.04095        -0.72957
C         51.40317        35.22456        -0.43234
C         52.74780        37.39179        -0.02293
C         51.49483        38.10026         0.47141
C         52.71280        40.23427         0.00089
C         51.54233        39.56266         0.06603
C         52.71311        41.69916        -0.20241
C         51.45886        42.44786         0.08253
C         52.73081        44.64716         0.24209
C         51.46223        43.93535        -0.17369
C         52.75775        46.03085         0.29834
C         51.50622        46.77127         0.12659
C         51.45620        48.15969        -0.05268
C         55.03416        27.33030        -0.07636
C         53.85918        26.74230         0.24420
C         55.09480        28.71226        -0.65464
C         53.80707        29.47272        -0.46235
C         55.01252        31.55093         0.10961
C         53.88196        30.94529        -0.72691
C         54.99221        33.06549         0.27496
C         53.84084        33.77258        -0.29552
C         55.23206        35.91539        -0.29331
C         53.93533        35.21393        -0.58005
C         55.20846        37.40111        -0.18823
C         53.95369        38.06146         0.02390
C         55.27144        40.28580        -0.01188
C         54.00729        39.54832         0.43541
C         55.29116        41.69595         0.09046
C         54.01145        42.43920        -0.02216
C         55.28716        44.60491         0.56069
C         53.95103        43.85705         0.45044
C         55.22283        46.06433         0.43548
C         54.03204        46.71907         0.40039
C         56.30634        29.47276        -0.15191
C         56.27826        30.77736         0.15371
C         56.20980        33.83081         0.60612
C         56.31763        35.14978         0.36359
C         56.39894        38.12385        -0.29004
C         56.43556        39.52460        -0.22057
C         56.49196        42.48436         0.08348
C         56.49954        43.84609         0.21457
O         34.78957        37.65380        -0.57349
O         39.75620        40.28571         2.78257
O         47.02817        28.95598        -1.97171
O         40.44717        44.87485        -1.75604
O         50.89603        35.60979         1.52867
O         38.57341        28.82910         2.33884
O         44.94115        49.67377         1.51302
O         48.68702        41.82284         2.09962
O         33.74519        42.28739         2.01813
O         48.05742        33.90905        -1.92497
O         44.07781        42.87863        -1.17334
O         30.82467        33.08261         2.28796
O         43.65112        30.16733        -1.86516
O         53.43653        42.22575        -1.37826
O         49.55167        40.11528        -1.36233
O         42.09007        32.52262        -1.46833
O         34.12579        24.45270         1.26351
O         37.15106        24.42236         1.73789
O         40.91129        22.58533         1.28330
O         45.95841        39.78036         1.89122
O         46.29730        26.06176         1.40060
O         47.12755        46.34265        -1.32831
O         54.59158        32.11410         1.36340
O         39.53645        42.69905         1.95215
O         37.69283        31.98479         2.84944
O         27.85662        33.17194         1.05814
O         54.06784        39.64231         1.82013
O         44.36332        33.77917        -1.63336
O         37.17617        46.21770         0.81084
O         35.82610        43.61797        -1.73313
O         34.76278        46.20789        -2.11721
O         39.31272        33.73429         3.35331
O         30.74180        45.66497        -2.19372
O         54.91094        35.47252        -1.67272
O         39.84907        37.89998         3.02718
O         54.58616        44.06426         1.73913
O         41.11907        38.75886        -0.18530
O         34.44013        48.47635         0.58886
O         47.71621        36.59207        -1.42627
O         38.91889        46.89296        -2.37411
H         39.16579        46.04074        -2.80710
O         40.93907        35.65440         3.15326
H         40.38304        34.92345         3.56564
O         47.42513        48.92684        -1.77157
H         47.45355        47.99123        -2.08937
O         37.88248        49.89693        -2.75917
H         38.39408        49.06425        -2.87349
O         30.34914        37.48971         3.02674
H         29.50932        37.10312         3.35399
O         41.34964        32.74147         2.40749
H         40.78967        32.89475         3.22857
O         55.28717        28.56957        -2.10358
H         55.14833        29.47458        -2.48068
O         35.75460        32.98683        -0.61666
H         34.95295        32.72340        -1.11397
O         32.19097        27.34079         1.41171
H         32.89436        27.58088         2.05722
O         43.90860        39.66392        -0.94340
H         43.07498        39.24222        -1.25013
O         33.51675        28.84276        -1.67126
H         33.61077        29.77268        -1.96634
O         32.01370        35.38973         2.83616
H         31.46656        34.76614         3.36219
O         40.30240        34.19502        -0.76633
H         40.58302        33.62210        -1.52003
O         45.76795        37.18671         2.18182
H         45.08056        36.71653         2.69867
O         40.00053        24.41079        -1.76841
H         39.97158        25.34134        -2.07702
O         36.99308        35.02672        -0.43548
H         37.13680        35.92468        -0.80010
O         51.40962        44.03838        -1.64650
H         52.13854        43.46227        -1.98932
O         49.04793        44.33777         2.30790
H         48.59372        43.60663         2.79554
O         44.03404        25.21779        -2.00101
H         43.22241        25.66176        -2.32851
O         50.30663        32.97935        -2.49567
H         49.43731        33.25715        -2.88195
O         37.20196        40.88237         2.79388
H         38.01266        41.19887         3.25727
O         37.21886        37.38006         3.25621
H         38.00829        37.22535         3.82373
O         48.67971        34.52191         1.51751
H         49.51553        34.74301         2.02677
O         39.06801        47.98173         1.12583
H         38.27498        47.47218         1.43174
O         41.22335        51.27916         1.10712
H         41.07612        50.41436         1.54822
O         26.96926        35.52621         1.90217
H         26.95848        34.53709         1.85924
O         34.88683        28.45461         2.51074
H         35.70425        28.14521         2.96007
O         51.53189        38.09024         1.91687
H         51.38338        37.13349         2.17191
O         52.51246        36.39214        -2.13672
H         53.41014        36.31587        -2.53952
O         32.53772        35.66044        -0.75046
H         33.23645        36.14781        -1.24421
O         31.39315        43.09403         2.39036
H         32.30893        43.15571         2.75833
O         46.37083        42.80714         2.52204
H         46.48185        41.96923         3.02226
O         46.92842        48.07985         1.78350
H         46.41733        48.77770         2.26050
O         41.71786        48.09383        -2.32549
H         40.95313        47.58373        -2.68096
O         29.78488        30.78100         1.60463
H         30.17514        31.18283         2.41371
O         27.74875        40.36900         2.96501
H         28.56270        40.82128         3.27622
O         46.02033        38.55246        -1.20986
H         46.37819        37.90771        -1.86481
O         35.98249        33.97801         2.92341
H         36.46574        33.38607         3.54370
O         54.29968        31.14587        -2.13827
H         53.48595        31.18147        -2.68670
H         27.91192        27.70232        -3.36666
H         26.76489        29.91880        -3.29205
H         26.56644        32.19054        -2.34285
H         26.81190        34.15012        -2.00449
H         26.54530        36.35264        -1.01845
H         25.74974        37.65379         0.55427
H         25.63881        40.05783         1.00667
H         25.69108        42.01374         1.29700
H         25.71101        44.40933         0.66914
H         26.88783        46.40677        -0.08753
H         29.69948        26.20761        -2.63535
H         28.87138        47.42596        -1.13387
H         32.84164        23.58580        -1.14012
H         31.04308        25.01911        -1.89428
H         32.55470        49.72218        -1.23269
H         30.60640        48.35326        -1.70812
H         34.37192        22.39015        -0.47336
H         34.35207        50.84109        -0.79237
H         36.48328        21.25484        -0.76167
H         36.43055        51.97814        -1.28902
H         40.29270        19.05140        -0.68786
H         38.14974        20.19923        -0.53217
H         40.31973        54.05711        -1.59286
H         38.17619        52.86835        -1.50075
H         42.77308        19.14591        -0.96501
H         42.81788        54.08657        -1.36213
H         44.88994        20.39682        -0.85147
H         44.89099        52.96083        -0.63879
H         48.63574        22.52382        -0.02718
H         46.55391        21.30032        -0.31396
H         48.62166        50.91646         0.14093
H         46.54629        52.11238         0.48182
H         50.17642        23.54224         0.72900
H         50.26316        49.92046        -0.35218
H         52.25972        24.77857         0.67269
H         52.38413        48.74295        -0.12622
H         55.97784        26.77567         0.03446
H         53.87532        25.71241         0.62587
H         56.16543        46.62623         0.35738
H         54.03908        47.81653         0.34675
H         57.25762        28.91983        -0.11123
H         57.19338        31.28540         0.49411
H         57.01591        33.30268         1.13480
H         57.21309        35.69708         0.69221
H         57.33993        37.58085        -0.45899
H         57.40081        40.02297        -0.39554
H         57.45379        41.97251        -0.06613
H         57.44417        44.39965         0.10485
