         477
 CSIRO Nanostructure Databank - Neutral Graphene Oxide Data Set
C         27.73985        27.32895        -0.22863
C         27.57212        28.83163        -0.33805
C         26.69622        29.42829         0.72740
C         27.93564        31.56301         0.63959
C         26.81902        30.73179         1.05805
C         27.98517        32.92830         1.31631
C         26.75126        33.80367         1.10773
C         28.05052        35.97683         0.87714
C         26.78162        35.14295         0.99494
C         27.97922        37.39385         1.51068
C         26.95245        38.23495         0.77886
C         28.05677        40.22795         1.70548
C         26.97847        39.56689         0.87472
C         28.13993        41.74056         1.43738
C         26.93005        42.47489         1.97038
C         28.24244        44.54214         2.00992
C         26.99919        43.79691         2.20797
C         28.22651        45.94788         1.95523
C         30.21565        27.35717        -0.21856
C         28.90180        26.65905        -0.27880
C         30.18623        28.80355        -0.62255
C         28.90587        29.57713        -0.48148
C         30.31578        31.64129        -0.06588
C         29.00760        31.00074        -0.03615
C         30.36077        33.09759         0.24306
C         29.18601        33.76041         0.88203
C         30.56040        35.88382         1.37559
C         29.21717        35.17187         1.48632
C         30.57170        37.37372         1.32579
C         29.35098        38.09337         1.43545
C         30.57398        40.21411         1.21506
C         29.37011        39.49812         1.44832
C         30.62186        41.65804         1.35596
C         29.44128        42.34122         2.01730
C         30.67836        44.56447         1.69201
C         29.46431        43.85530         1.86292
C         30.63253        45.99083         1.53030
C         29.39551        46.64758         1.68612
C         32.85348        24.53757        -0.11282
C         31.64242        25.16715        -0.14124
C         32.81688        27.34386        -0.39449
C         31.54924        26.63716        -0.13253
C         32.81503        28.74335        -0.78996
C         31.50138        29.53213        -0.71305
C         32.77449        31.54468         0.08071
C         31.50165        30.97447        -0.34453
C         32.91098        32.97962         0.40699
C         31.68437        33.84047         0.12910
C         33.06173        35.88072         0.73505
C         31.77595        35.12582         0.94995
C         33.05616        37.36509         0.78088
C         31.77001        38.07427         1.03533
C         32.98108        40.19125         0.51407
C         31.75459        39.47926         0.92454
C         32.99028        41.69398         0.63298
C         31.78371        42.36927         1.14680
C         33.17739        44.24544         1.78623
C         31.89898        43.76378         1.53680
C         33.07304        46.40134         1.37969
C         31.78872        46.77204         1.05276
C         32.70051        48.66137        -0.27190
C         31.64256        47.97440         0.24858
C         35.40879        23.13904         0.19788
C         35.32391        24.54240         0.23981
C         34.10085        25.22614         0.07066
C         35.33752        27.35885        -0.41335
C         34.07188        26.74243         0.19432
C         35.40924        28.83217        -0.50202
C         34.10550        29.57527        -0.72879
C         35.72082        31.75254        -0.00116
C         33.85932        30.71630         0.22481
C         35.45448        33.04966        -0.33584
C         34.23831        33.71823         0.18056
C         35.25749        35.98494        -0.62138
C         34.11098        35.19109        -0.08410
C         35.34565        37.43396        -0.27602
C         34.24310        38.08170         0.23507
C         35.49601        40.27664         0.10611
C         34.33187        39.50332         0.68891
C         35.47826        41.65540         0.27131
C         34.30898        42.32892         0.78267
C         35.68741        44.24734         1.40603
C         34.39361        43.57874         1.38487
C         35.59967        46.43794         0.94519
C         34.23748        46.83926         0.61889
C         35.30270        48.79103        -0.61576
C         34.04889        48.06925        -0.31661
C         35.28391        50.21980        -0.78092
C         37.84876        23.10142         0.42729
C         36.63156        22.45391         0.27765
C         37.94469        24.58932         0.67523
C         36.54997        25.36519         0.64741
C         37.89144        27.34186        -0.37731
C         36.61880        26.61142        -0.24316
C         37.88742        28.75124        -0.63408
C         36.62509        29.48197        -0.54106
C         37.83244        31.58316        -1.15354
C         36.75596        30.94484        -0.59810
C         37.77174        33.03235        -1.44361
C         36.45273        33.75934        -1.17841
C         37.81390        35.94137        -1.09079
C         36.47989        35.26034        -1.11327
C         37.89860        37.34073        -0.49986
C         36.59805        38.13630        -0.46280
C         37.93912        40.22075        -0.52313
C         36.67104        39.52608        -0.30590
C         37.95681        41.69744        -0.28049
C         36.69443        42.47516         0.05111
C         38.06325        44.68109         0.69788
C         36.78369        43.80845         0.72420
C         37.93666        46.11696         0.13728
C         36.66744        46.83894         0.15683
C         37.74967        48.76400        -1.01121
C         36.52267        48.10080        -0.55549
C         37.71389        50.31851        -1.16369
C         36.42039        50.95937        -0.90978
C         40.34172        20.34953         0.99793
C         39.13196        21.01828         0.90697
C         40.29705        22.99257         0.05557
C         39.09368        22.36072         0.46705
C         40.22342        24.36569        -0.48348
C         39.04948        25.20343        -0.16985
C         40.37769        27.32638        -0.57213
C         39.07424        26.57029        -0.43862
C         40.24944        28.63053        -1.33192
C         39.03554        29.41517        -1.07789
C         40.31570        31.56979        -1.60953
C         38.99042        30.80139        -1.70032
C         40.31593        33.02712        -1.53042
C         39.06299        33.78147        -1.40700
C         40.35773        35.83478        -0.78623
C         39.06679        35.13476        -1.14229
C         40.34363        37.33135        -1.03125
C         39.02228        38.05683        -1.25614
C         40.33597        40.17463        -1.27047
C         39.06647        39.54252        -0.97755
C         40.40452        41.59418        -1.52320
C         39.11665        42.42486         0.34086
C         40.24878        44.52509        -0.56148
C         39.17310        43.90014         0.00039
C         40.39603        46.02815        -0.25839
C         39.06548        46.73795        -0.36408
C         40.22394        48.85494        -1.05904
C         39.06200        48.12433        -0.79808
C         40.22518        50.31040        -1.02610
C         38.99143        51.02382        -0.93725
C         40.17576        53.06662        -0.37386
C         38.98982        52.39484        -0.61861
C         42.78893        20.25375         0.75602
C         41.54332        20.97167         0.60587
C         42.77113        22.93543        -0.34482
C         41.52692        22.29769         0.08312
C         42.79570        24.26186        -0.73495
C         41.53832        25.03440        -0.87819
C         42.76839        27.18660        -1.15684
C         41.59074        26.51697        -0.95433
C         42.84090        28.58819        -1.75370
C         41.50913        29.35531        -1.74898
C         42.79304        31.53099        -1.91202
C         41.49177        30.84340        -1.71999
C         42.78977        33.03746        -1.98096
C         41.53038        33.75542        -1.62348
C         42.79225        35.89434        -1.37807
C         41.58813        35.15460        -1.36044
C         42.80547        37.29820        -1.15561
C         41.54174        38.01443        -1.08168
C         42.79695        40.18013        -1.13703
C         41.54754        39.46762        -1.18670
C         42.78069        41.64200        -0.99877
C         41.50077        42.32831        -1.07042
C         42.60644        44.47887        -1.17122
C         41.42996        43.77448        -0.99453
C         42.46998        45.86636        -1.51145
C         41.46852        46.68237        -1.08925
C         42.84209        48.93519        -1.33565
C         41.50910        48.14657        -1.30937
C         42.82354        50.45345        -1.16426
C         41.44519        51.02266        -0.84056
C         42.62634        53.07177        -0.10561
C         41.40885        52.38809        -0.48015
C         43.95985        20.78839         0.34791
C         45.36667        22.81003        -0.44183
C         44.01267        22.10904        -0.30295
C         45.35718        24.29283        -0.66774
C         44.05994        25.01030        -0.94644
C         45.18351        27.24466        -0.80594
C         44.02918        26.50390        -0.96066
C         45.19770        28.69674        -0.98910
C         44.05632        29.37412        -1.30549
C         45.35535        31.59215        -1.43784
C         44.10450        30.80706        -1.69203
C         45.35272        33.03301        -1.57598
C         44.11286        33.77141        -1.96043
C         45.32401        35.93841        -1.30544
C         44.08849        35.30598        -1.90195
C         45.29632        37.36333        -1.15104
C         44.04071        38.04184        -1.12680
C         45.24412        40.24940        -0.64967
C         43.99927        39.47387        -1.03775
C         45.25287        41.66659        -1.23676
C         43.95154        42.37717        -0.95425
C         45.20262        44.63518        -0.60478
C         43.85554        43.84678        -0.58322
C         45.32961        46.10676        -0.86264
C         44.33411        46.92381        -1.42702
C         45.23012        48.90666        -0.40812
C         44.15590        48.26990        -1.08029
C         45.10935        50.29537        -0.01309
C         43.93174        51.01156        -0.27613
C         43.80234        52.39571         0.06702
C         47.72095        22.97447         0.35360
C         46.62124        22.22939         0.07977
C         47.73984        24.42211         0.29842
C         46.44969        25.09910        -0.03238
C         47.63069        27.36111        -0.04506
C         46.36634        26.58360        -0.19294
C         47.50431        28.85912        -0.04692
C         46.54742        29.38893        -1.10161
C         47.86214        31.60973        -1.10125
C         46.50987        30.90867        -1.10182
C         47.76397        33.11064        -0.95599
C         46.53454        33.76658        -1.28760
C         47.81583        35.93092        -1.41661
C         46.50590        35.21418        -1.25210
C         47.75899        37.40089        -1.12227
C         46.55650        38.09112        -1.07035
C         47.71061        40.27819        -0.95672
C         46.54713        39.53945        -0.95546
C         47.67491        41.72517        -0.72245
C         46.49626        42.40586        -0.77210
C         47.79016        44.59567        -0.53656
C         46.49340        43.86493        -0.51633
C         47.76925        46.06387        -0.48728
C         46.48860        46.79043        -0.44730
C         47.61689        48.84539         0.36257
C         46.45842        48.19284        -0.22148
C         47.43539        50.20449         0.79385
C         46.25693        50.88221         0.62863
C         50.18900        24.62728         0.76615
C         48.84190        25.17036         0.65569
C         49.83121        27.46323         1.28637
C         48.79744        26.66068         0.56141
C         49.85619        28.93301         1.03143
C         48.69183        29.64901         0.37228
C         50.02328        31.71958         0.17121
C         48.89751        31.01990        -0.15003
C         50.16213        33.12238        -0.22275
C         48.95740        33.82853        -0.66814
C         50.21325        35.96278        -0.66532
C         49.00777        35.23886        -0.80935
C         50.29421        37.36692        -0.85854
C         49.05118        38.10389        -1.22622
C         50.27499        40.34059        -0.82460
C         49.01310        39.62013        -1.19434
C         50.18547        41.68888        -0.18448
C         48.89735        42.42830        -0.25074
C         50.18053        44.59068         0.10128
C         48.95181        43.91057        -0.27836
C         50.17532        45.96976         0.38563
C         49.01440        46.79387         0.00847
C         49.96593        48.68725         1.25032
C         48.83343        48.15086         0.56253
C         51.24548        25.38043         1.14709
C         52.27278        27.57557         1.99143
C         51.03626        26.70368         1.84096
C         52.31315        28.92833         1.65147
C         51.21049        29.57607         0.82563
C         52.48253        31.68228         0.79947
C         51.10578        31.09978         1.05186
C         52.62653        33.07303         0.25496
C         51.37517        33.77901        -0.13311
C         52.78875        35.94980        -0.32859
C         51.46849        35.19827        -0.51198
C         52.67961        37.40816        -0.15231
C         51.50253        38.06470        -0.57396
C         52.54729        40.21323         0.31996
C         51.51476        39.55671        -0.56602
C         52.61447        41.71697         0.25739
C         51.44093        42.44198         0.05662
C         52.53305        44.47920         0.87759
C         51.38424        43.83750         0.32609
C         52.48389        45.86748         1.23301
C         51.29374        46.60640         1.01040
C         51.13465        47.98106         1.41851
C         54.49461        27.71042         2.98686
C         53.36627        26.98400         2.67998
C         54.57585        29.08173         2.62921
C         53.47745        29.70018         1.96274
C         54.75524        31.80131         1.81959
C         53.58751        31.07220         1.57689
C         54.84870        33.20731         1.39683
C         53.84189        33.82090         0.63481
C         55.04909        36.02460         0.88529
C         54.08701        35.20964         0.05841
C         55.05531        37.52582         0.88817
C         53.85848        38.15868         0.22117
C         55.12448        40.36052         0.08528
C         53.86960        39.52994         0.16690
C         55.02710        41.54866         1.07315
C         53.76966        42.35967         0.77225
C         54.85755        44.26915         1.91870
C         53.70575        43.70571         1.12457
C         54.81002        45.76473         2.03304
C         53.69328        46.47636         1.75803
C         55.74631        29.84471         2.89099
C         55.83518        31.15825         2.49430
C         55.94665        33.98615         1.85198
C         55.97701        35.37916         1.66948
C         56.33608        38.18629         0.41803
C         56.36892        39.50304         0.16810
C         56.24814        42.44407         1.02093
C         56.16978        43.72855         1.38932
O         52.84082        31.85166        -0.60865
O         45.82164        44.32822         0.71588
O         52.36572        35.48972        -1.65532
O         36.77787        33.27392        -2.50512
O         43.55061        30.97270        -3.03842
O         29.42463        29.20372        -1.80747
O         32.83962        41.01071        -0.67071
O         40.63750        24.47028        -1.89491
O         51.32170        40.24150        -1.83860
O         48.69959        46.69835        -1.42938
O         33.52871        36.53973         1.94480
O         35.76399        45.52446         1.99870
O         32.07350        29.12270        -2.01263
O         42.15494        48.56148        -2.56810
O         40.62846        28.69724        -2.75051
O         33.74805        33.37448         1.51672
O         47.45999        29.55324         1.21476
O         48.74623        26.97071        -0.89943
O         49.12795        38.91540        -2.46064
O         39.73154        41.96969         1.29762
O         31.42668        35.17131         2.35819
O         33.29256        45.49372         2.43351
O         34.10148        35.63167        -1.46753
O         49.43871        28.43301         2.33379
O         30.85088        27.20006         1.09102
O         29.32225        33.79776        -0.57398
O         45.96564        25.93114         1.08395
O         44.98229        24.59579        -2.03640
O         35.88008        26.56621        -1.52144
O         34.94546        31.12822         0.99622
O         37.26046        42.48557        -1.29809
O         43.47664        46.34363        -2.36110
O         37.67932        49.42136        -2.30972
O         44.78517        22.07418        -1.55180
O         37.02097        35.87634        -2.31338
O         36.29153        25.80744         1.96784
O         34.02097        46.71669        -0.84335
O         43.45385        33.41155        -3.23440
O         49.33703        41.77486         1.01233
O         54.71085        43.70621         3.28232
H         55.33154        44.19000         3.86794
O         39.45540        42.13986        -2.31050
H         39.58669        43.10584        -2.40148
O         34.05424        27.09447         1.59695
H         34.87587        26.64907         1.99987
O         26.84661        29.04629        -1.58398
H         27.51403        28.98029        -2.30522
O         47.08181        28.95506        -2.37599
H         46.43611        29.18273        -3.07783
O         48.42531        31.39037        -2.44096
H         47.85505        31.85808        -3.08757
O         27.55500        37.31927         2.89326
H         28.06648        36.58653         3.31860
O         55.12638        40.98008        -1.22970
H         55.02578        40.27610        -1.90423
O         52.13747        39.91832         1.69733
H         52.86325        40.23505         2.28485
O         38.50620        44.83375         2.08105
H         38.79657        43.95179         2.40352
O         50.79004        31.34871         2.43683
H         50.00083        30.81683         2.67804
O         31.80666        34.24582        -1.25281
H         30.90172        34.37774        -1.61540
O         54.93145        37.89338         2.30647
H         54.97262        38.87745         2.37117
O         27.72397        40.06619         3.11112
H         27.59746        39.09406         3.27533
O         34.57373        39.46395         2.14011
H         34.35091        38.56571         2.47217
O         48.06897        35.85280        -2.87358
H         47.36643        36.37100        -3.32347
O         40.49942        35.66435         0.68026
H         41.21734        36.26338         0.97670
O         28.16822        41.90156        -0.00001
H         28.19741        42.86123        -0.19769
O         34.29949        30.24030        -2.00493
H         33.47198        30.11348        -2.53329
O         38.47905        24.73457         2.01639
H         37.72933        25.19137         2.51652
O         28.30586        36.23338        -0.51383
H         28.36094        35.37404        -0.98947
O         38.26887        37.18658         0.89030
H         38.36415        38.07655         1.28987
O         45.17972        40.40323         0.79646
H         45.17408        39.51148         1.20170
O         29.51816        42.07185         3.43966
H         28.93106        41.30137         3.64248
O         54.88426        40.99187         2.41029
H         54.81482        41.77201         3.01963
O         28.06248        32.61450         2.72620
H         28.09099        33.47124         3.21527
O         38.73122        30.61528        -3.12034
H         39.38755        29.95549        -3.45104
O         50.66671        26.32435         3.20210
H         50.23985        27.11457         3.60522
O         54.79983        34.95932        -1.19998
H         54.10884        34.71463        -1.86190
O         43.44407        43.82612         0.82471
H         44.25275        43.65537         1.36343
O         38.73031        37.91858        -2.67141
H         39.41101        38.40947        -3.17699
O         51.50051        29.34051        -0.56985
H         52.13064        30.02538        -0.89144
O         43.13638        50.99684        -2.48849
H         42.65626        50.42895        -3.13483
O         45.35732        41.51527        -2.68209
H         45.31824        42.40116        -3.09805
O         40.65275        27.78567         0.80180
H         40.44395        27.05466         1.42305
O         40.82044        46.11718         1.12995
H         40.10734        45.71301         1.68706
O         43.14347        28.29501        -3.15042
H         42.29057        28.07193        -3.58917
O         28.96230        35.06954         2.91679
H         29.84229        34.90596         3.33769
O         44.17484        35.78979        -3.28224
H         43.71232        35.11651        -3.83876
H         26.79948        26.75559        -0.21639
H         25.86659        28.82592         1.12477
H         26.11136        31.17757         1.77219
H         25.77241        33.29860         1.14254
H         25.82561        35.68258         0.89849
H         26.18371        37.72405         0.18079
H         26.23793        40.19273         0.35565
H         25.98333        41.92815         2.09186
H         26.11038        44.35913         2.53253
H         27.27869        46.48778         2.09139
H         28.89670        25.55913        -0.23902
H         29.35345        47.74269         1.60608
H         32.85561        23.43861        -0.15310
H         30.71961        24.57027        -0.16098
H         32.52812        49.63393        -0.75413
H         30.63437        48.39848         0.13419
H         34.49948        22.53296         0.07866
H         34.31990        50.73733        -0.67330
H         36.61524        21.35912         0.17047
H         36.35366        52.05460        -0.85961
H         40.37529        19.32141         1.38542
H         38.20810        20.52096         1.23168
H         40.16442        54.13141        -0.10190
H         38.04233        52.94543        -0.55357
H         42.75908        19.24960         1.20297
H         42.56129        54.13784         0.15657
H         44.88979        20.20932         0.42543
H         44.66125        52.93440         0.49034
H         48.63678        22.46069         0.67863
H         46.68859        21.13450         0.14503
H         48.27554        50.72940         1.26941
H         46.20580        51.92208         0.97848
H         50.36182        23.60098         0.40868
H         49.91805        49.71069         1.64853
H         52.25912        24.95364         1.12576
H         51.96607        48.47705         1.93773
H         55.33881        27.23938         3.51023
H         53.29219        25.92819         2.97521
H         55.70669        46.27771         2.41545
H         53.71092        47.56545         1.90875
H         56.59440        29.36346         3.39872
H         56.76974        31.69911         2.68871
H         56.73389        33.53161         2.46485
H         56.73437        35.97073         2.20350
H         57.26254        37.59184         0.40094
H         57.31861        39.97842        -0.12436
H         57.20177        42.01982         0.67222
H         57.05453        44.38378         1.36156
