         276
 CSIRO Nanostructure Databank - Neutral Graphene Oxide Data Set
C        -10.95187         0.58835        -0.38703
C         -9.84406         1.43787        -0.99420
C         -8.50287         0.72701        -0.78821
C         -7.23870         1.50404        -0.70064
C         -5.94027         0.80251        -1.04399
C         -4.65574         1.56642        -0.81153
C         -3.37149         0.81679        -0.52123
C         -2.42286         1.54695         0.41906
C         -1.32370         0.77882         1.10042
C         -0.18213         1.49093         1.88372
C          1.19920         0.81856         1.78633
C          2.50154         1.54666         1.59648
C          3.55113         0.82449         0.73241
C          4.90451         1.53785         0.62966
C          6.01787         0.75442         0.00936
C          7.31500         1.47284        -0.38651
C          8.55726         0.70439        -0.49948
C          9.84287         1.40076        -0.51072
C         11.04626         0.57478        -0.58394
C         -9.86456         2.83305        -0.34286
C         -8.59035         3.65123        -0.46480
C         -7.28170         3.02893        -0.90743
C         -6.09866         3.64261        -0.14755
C         -4.76570         3.01336        -0.44663
C         -3.53224         3.81620        -0.12670
C         -2.27283         3.04614         0.20488
C         -1.14360         3.77303         0.87183
C         -0.07798         3.03251         1.65056
C          1.23397         3.77649         1.70314
C          2.55632         3.05597         1.62404
C          3.83307         3.73323         1.22597
C          4.99260         2.89416         0.76815
C          6.24634         3.64352         0.46211
C          7.42544         2.93769        -0.13838
C          8.78710         3.57428         0.17310
C          9.93493         2.76134        -0.36933
C         -8.64248         4.94814        -0.11004
C         -7.47247         5.82614         0.26876
C         -6.17886         5.01392         0.45356
C         -4.90580         5.81390         0.83214
C         -3.63547         5.28322         0.16600
C         -2.33192         6.05250         0.41415
C         -1.17536         5.26548         0.99167
C         -0.01466         5.95632         1.12973
C          1.25311         5.23840         1.36209
C          2.47921         5.89748         0.84128
C          3.86251         5.22452         0.85499
C          4.47124         5.57540        -0.48887
C          6.76444         4.88593         1.18172
C          7.60451         5.73555         0.22842
C          8.70603         5.05024        -0.19803
C         -7.19969         7.02645        -0.62737
C         -6.09526         7.79166        -0.41110
C         -5.13880         7.37929         0.69286
C         -3.78720         8.14502         0.69785
C         -2.49833         7.45479         0.98098
C         -1.19921         8.23410         0.93533
C          0.07529         7.46460         1.08508
C          1.36965         8.11258         0.59233
C          2.30410         7.11962        -0.09006
C          3.60291         7.90744        -0.07360
C          4.75476         7.07424        -0.69025
C          6.09961         7.72810        -0.39868
C          7.30969         7.12490        -0.11112
C         -5.99930         9.17963        -0.86808
C         -4.94673         9.98411        -0.59652
C         -3.62773         9.39853        -0.16574
C         -2.53437        10.33993         0.40165
C         -1.20727         9.59201         0.34238
C         -0.05501        10.09904        -0.20654
C          1.19249         9.38875        -0.20944
C          2.35061         9.94372        -0.77680
C          3.58297         9.26138        -0.72832
C          4.86485         9.82749        -0.96701
C          6.04506         9.13601        -0.71581
C        -10.87782        -0.74859        -0.29942
C         -9.72470        -1.50158        -0.85303
C         -8.47746        -0.71970        -1.18778
C         -7.16851        -1.45869        -1.33290
C         -5.88773        -0.67073        -1.29997
C         -4.54593        -1.45136        -1.32661
C         -3.36342        -0.68874        -0.61440
C         -2.41118        -1.45781         0.29539
C         -1.16982        -0.69390         0.74453
C          0.02411        -1.46715         1.23098
C          1.21341        -0.71393         1.77519
C          2.52188        -1.44302         1.64246
C          3.65957        -0.72006         0.95355
C          4.92466        -1.47422         0.63047
C          6.12388        -0.70552         0.18668
C          7.24466        -1.36274        -0.27142
C          8.46467        -0.66712        -0.63987
C          9.69335        -1.42536        -1.00168
C         10.98558        -0.76823        -0.70972
C         -9.57885        -2.92883        -0.56830
C         -8.37901        -3.61663        -0.68365
C         -7.12545        -2.94023        -1.12524
C         -5.80448        -3.61022        -0.89318
C         -4.62509        -2.92868        -0.90667
C         -3.25341        -3.61592        -0.86557
C         -2.32925        -2.95501         0.18288
C         -0.97063        -3.66498         0.42331
C         -0.13400        -2.97981         1.55072
C          1.21756        -3.73055         1.75248
C          2.52054        -2.97960         1.63898
C          3.83620        -3.69239         1.40599
C          5.08299        -2.92817         1.04782
C          6.29887        -3.66741         0.50576
C          7.33248        -2.85492        -0.20038
C          8.13341        -3.42853        -1.35747
C          9.56367        -2.86713        -1.34962
C         -8.33339        -4.99949        -0.40371
C         -7.15958        -5.77372        -0.55351
C         -5.87610        -5.10472        -0.91630
C         -4.60576        -5.90967        -0.88485
C         -3.29154        -5.17924        -0.73596
C         -2.13539        -5.95003        -0.15109
C         -1.16177        -5.17372         0.71614
C         -0.08370        -5.93642         1.42229
C          1.24043        -5.29117         1.81312
C          2.42826        -5.86406         1.03916
C          3.82895        -5.23870         1.27958
C          4.77592        -5.70968         0.12964
C          6.23613        -5.20143         0.28521
C          7.04879        -5.65214        -0.92771
C          8.02003        -4.91893        -1.50039
C         -7.23664        -7.14732        -0.38927
C         -6.06373        -8.01712        -0.34951
C         -4.70460        -7.36772        -0.46361
C         -3.60208        -7.98149         0.36554
C         -2.19708        -7.50581        -0.04694
C         -1.41533        -8.10295         1.11664
C         -0.08502        -7.44147         1.36272
C          1.16862        -8.14986         1.00067
C          2.38883        -7.32870         0.71528
C          3.67879        -8.07295         0.51744
C          4.84671        -7.25224         0.09374
C          5.89831        -7.95750        -0.77582
C          6.69824        -6.95675        -1.61687
C         -6.17673        -9.31526         0.35400
C         -5.07615       -10.03551         0.66539
C         -3.73726        -9.48460         0.55493
C         -2.63025       -10.23401         0.83025
C         -1.32393        -9.59326         0.85156
C         -0.17452       -10.23172         0.52365
C          1.08775        -9.47569         0.19522
C          2.35286       -10.20795         0.45750
C          3.67157        -9.60570         0.13496
C          4.14818        -9.67806        -1.31336
C          5.21862        -8.96747        -1.69036
O          1.02412        -9.07552        -1.19503
H          0.11169        -8.73872        -1.37728
O         -1.26328        -5.45537         2.13610
O         -3.58075         4.82763        -1.20894
O         -2.30435        -7.87516         2.27749
O          9.74802        -1.93018        -2.43243
O         -3.27748         8.00011         2.07492
O         -3.02522        -2.32702         1.29030
O         -1.08500         3.38140        -0.56658
O         -0.07388        -1.01861        -0.16503
O         -3.61767        -7.42127         1.72977
O          2.08805         1.16936         2.91621
O          6.56522         3.72997        -0.97258
O          0.72537        -8.13950         2.37123
O          6.30654         1.14500        -1.37869
O         -2.59103         1.07659         1.77649
O         -2.68577         0.14666        -1.60500
O         -2.17406        -5.65448        -1.56678
O         -7.19228        -2.36575        -2.47329
O          2.09308         6.07017         2.23177
O          3.83680        -1.35719        -0.36225
O          3.51495         3.52165         2.63355
O         -0.58089         1.30921         3.24890
H          0.07393         1.78427         3.80997
O          1.97506        -1.09351         2.94092
O          2.23768         8.54362         1.73156
O          4.24993        -5.14376        -1.07335
H          4.62939        -5.62341        -1.85369
O          4.43366         4.83205        -1.44962
H          4.80961         6.39237        -2.54620
O          1.94452        -3.35391         2.94028
O          7.56961        -3.31806         1.15882
O         -7.88828         6.35305         1.54667
H         -7.18972         6.99952         1.86843
O         -1.81383         6.43282        -0.90321
H         -1.94121         5.65718        -1.50199
O         -5.19422        -8.17669        -1.55524
O          6.82307        -5.87549         1.41281
H          6.20321        -5.77758         2.17707
O          4.79164        -3.23400         2.43002
O         -5.93426         0.29418        -2.41586
O        -10.13790         2.67220         1.05886
H         -9.32068         2.33090         1.48470
O         -2.81393        10.71292         1.74405
H         -2.94547         9.88873         2.27321
O          2.12793        -6.29920        -0.30610
O         -5.26904        -5.64583        -2.14515
O         -5.76555         7.79613         1.88935
O         -0.50376         8.14058         2.23402
O          6.80197         5.01798         2.38162
O          4.75113        -7.81024         1.44232
O          2.95906         1.00193        -0.57945
H          3.38978         0.36066        -1.19346
O          5.87517        -6.60342        -2.75264
H          6.36128        -5.94547        -3.29413
O         -9.40590        -1.06091        -2.24774
O        -10.07153         1.59709        -2.40233
H        -10.02855         0.69987        -2.81087
O         -7.86943         0.99161         0.51499
O          4.54407         7.24619        -2.12317
O          4.64475       -10.28805         0.92509
H          5.52438        -9.85904         0.77336
O          0.38942         3.62471         2.88995
O         -3.01875         8.92359        -1.40960
H         -3.65590         8.33992        -1.87365
O         -7.14335         3.29390        -2.31225
H         -6.25129         2.98264        -2.60152
O         -0.83917        -3.03978         2.78857
H         -0.21403        -2.79078         3.50380
O         -0.19035        -3.56576        -0.77068
H         -0.79766        -3.60643        -1.55261
O         -4.58101         2.58523        -1.85266
O          1.49018        -5.67545         3.17704
H          0.69309        -5.46115         3.70752
O         -2.56585        -3.38235        -2.11472
H         -3.12653        -2.83765        -2.72217
O          3.65365         8.25853         1.35810
O         -6.34730         3.81554         1.27261
O          6.81001        -8.64804         0.10580
H          7.02605        -8.02458         0.83903
O         -4.63788         5.59665         2.22054
H         -5.04999         6.38667         2.67685
O          1.88697         6.71269        -1.38489
H          2.61870         6.89030        -2.02427
O          7.46041        -2.93723        -2.54429
H          8.09352        -2.32330        -2.99718
O          8.93068         3.45442         1.62014
H          9.69451         3.99679         1.90723
O          4.30596        -5.71774         2.54199
H          3.66039        -5.44187         3.23238
O         -4.21232        -1.51276        -2.72740
H         -4.50749        -0.66591        -3.14205
O          4.59768         5.94442         1.84164
H          4.10135         5.87481         2.68981
O         -1.72249        -8.07478        -1.26259
H         -1.97584        -7.45439        -1.99104
H         11.90213        -1.37425        -0.74776
H         12.01725         1.07727        -0.46345
H         10.93432         3.22540        -0.36211
H          9.44350         5.49586        -0.88366
H          8.19275         7.78763        -0.16121
H          6.99663         9.68721        -0.76760
H          4.92500        10.88398        -1.26824
H          2.29998        10.94067        -1.24066
H         -0.07374        11.09406        -0.67928
H         -2.47494        11.27179        -0.21492
H         -4.97455        11.04495        -0.88810
H         -6.89786         9.60829        -1.34001
H         -7.99360         7.38348        -1.30252
H         -9.62211         5.36258         0.17780
H        -10.72213         3.40378        -0.77881
H        -11.83807         1.11205         0.00000
H        -11.69529        -1.32914         0.15490
H        -10.45970        -3.47234        -0.19435
H         -9.26439        -5.51081        -0.11881
H         -8.20672        -7.58672        -0.11216
H         -7.18319        -9.72323         0.52677
H         -5.17600       -11.04580         1.08886
H         -2.70989       -11.32225         0.96852
H         -0.20230       -11.30769         0.29408
H          2.35046       -10.96633         1.25556
H          3.67161       -10.39002        -2.00226
H          5.61850        -9.07519        -2.71001
H          7.63348        -7.45470        -1.99190
H          8.56420        -5.34892        -2.35962
H         10.41104        -3.56715        -1.18622
