         324
 CSIRO Nanostructure Databank - Neutral Graphene Oxide Data Set
C          1.39333         3.41966        -0.94666
C          0.17341         4.10961        -1.06951
C          1.16390         6.06237         0.06947
C          0.04177         5.39388        -0.58888
C          1.13956         7.58508         0.34649
C          0.11522         8.38858        -0.35860
C          1.06269        10.43023         0.60900
C          0.17365         9.72929        -0.34919
C          0.99406        11.93598         0.73651
C         -0.02961        12.74010         0.05911
C          1.04733        14.86661         0.60215
C         -0.02469        14.11556         0.06384
C          1.02702        16.31426         0.56456
C         -0.17799        17.07004         0.54166
C          1.04603        19.18372         0.28457
C         -0.16385        18.44769         0.40653
C          1.07560        20.63145         0.15034
C         -0.09823        21.41068         0.10208
C          1.09543        23.52411        -0.30217
C         -0.08439        22.79727        -0.14178
C          1.12295        24.92590        -0.63273
C          0.00835        25.77166        -0.56746
C          1.29303        27.82979        -1.00191
C          0.09312        27.17448        -0.72371
C          1.46485        29.25396        -0.97666
C          3.78407         3.39034        -0.35518
C          2.55028         4.07196        -0.45897
C          3.67675         6.16479         0.19164
C          2.49001         5.43870        -0.02672
C          3.60862         7.57458         0.59905
C          2.42194         8.26665         0.65213
C          3.59058        10.51536         0.93699
C          2.32140         9.71003         1.16590
C          3.57014        11.90616         0.87079
C          2.25975        12.61171         1.32839
C          3.55150        14.85273         0.77849
C          2.24585        14.14746         1.06706
C          3.49702        16.26878         0.28127
C          2.24352        17.03064         0.41993
C          3.52786        19.15090         0.22896
C          2.26702        18.44235         0.29898
C          3.52052        20.57165         0.03227
C          2.33951        21.30176        -0.00687
C          3.61541        23.43352        -0.61297
C          2.39481        22.82393         0.03647
C          3.65996        24.77043        -0.96042
C          2.38730        25.50778        -1.12679
C          3.78794        27.66124        -1.38865
C          2.46765        27.02109        -1.34312
C          3.89545        29.07361        -1.39007
C          2.68525        29.84418        -1.19543
C          6.16503         3.26126         0.12286
C          4.98543         4.07276        -0.12507
C          6.14244         6.32530         0.04724
C          4.94558         5.51956        -0.00694
C          6.14615         7.66019         0.55657
C          4.87866         8.25622         0.96333
C          6.12374        10.53834         0.89538
C          4.86391         9.81745         1.10460
C          6.07012        11.96443         0.81160
C          4.81567        12.61590         0.82106
C          6.02962        14.82903         0.93523
C          4.81131        14.07003         0.41764
C          5.99861        16.32374         0.88860
C          4.78914        17.02985         0.37076
C          6.00547        19.19039         0.53042
C          4.75324        18.49158         0.41267
C          6.06539        20.53369         0.13753
C          4.82432        21.18256        -0.31984
C          6.12463        23.35465        -0.71029
C          4.85255        22.64845        -0.68260
C          6.13162        24.72488        -1.00788
C          4.90495        25.44219        -1.23104
C          6.20556        27.50836        -1.72042
C          4.95583        26.86262        -1.46605
C          6.36281        28.94806        -1.68656
C          5.16322        29.68834        -1.52308
C          8.72853         3.28572         0.14963
C          7.43421         3.67256        -0.25571
C          8.63207         6.36833         0.01534
C          7.38938         5.81285        -0.36552
C          8.60936         7.74480         0.38911
C          7.35469         8.40310         0.60283
C          8.57864        10.56719         0.68881
C          7.34115         9.83658         0.77622
C          8.53946        11.99900         0.74133
C          7.33061        12.69705         0.77377
C          8.51291        14.89904         0.81769
C          7.34107        14.14684         0.85643
C          8.50700        16.35668         0.88348
C          7.26159        17.08980         0.90507
C          8.45963        19.26472         1.15671
C          7.22361        18.46858         0.83081
C          8.47834        20.62475         0.50670
C          7.32675        21.22730         0.05142
C          8.66783        23.36074        -0.52136
C          7.37713        22.58856        -0.56072
C          8.63075        24.85263        -0.64713
C          7.37896        25.39651        -1.24392
C          9.20151        27.77589        -1.52245
C          7.32411        26.64462        -1.83562
C          8.93119        29.19312        -1.36870
C          7.61334        29.67463        -1.59186
C         11.12336         3.47172         0.16932
C          9.87973         4.12798         0.06090
C         11.04790         6.32468         0.22420
C          9.84882         5.60127         0.02509
C         11.06658         7.74905         0.28564
C          9.83911         8.46351         0.42389
C         11.04358        10.62489         0.31253
C          9.81458         9.88504         0.54069
C         11.01669        12.01040         0.32853
C          9.84505        12.73528         0.93739
C         10.90959        14.91997         0.28488
C          9.78573        14.21523         0.61983
C         10.90372        16.38919         0.27508
C          9.69733        17.07385         0.76210
C         10.95699        19.17934         0.95138
C          9.75547        18.50703         0.89900
C         10.97380        20.65083         1.09091
C          9.71478        21.40246         0.75119
C         11.10977        23.51471         0.17120
C          9.80006        22.82415         0.29966
C         11.17019        24.86169        -0.11290
C          9.91264        25.62453        -0.39546
C         11.13322        27.84171        -0.09681
C         10.06213        27.06862        -0.73920
C         11.20530        29.29754        -0.39878
C         10.02434        29.94989        -0.87187
C         13.57695         3.45533         0.19455
C         12.37331         4.14022         0.26972
C         13.60483         6.39364         0.41685
C         12.31305         5.60699         0.47030
C         13.55758         7.82200         0.05578
C         12.30934         8.49436         0.15315
C         13.48425        10.63690        -0.23976
C         12.27437         9.90896         0.04548
C         13.45985        12.03301        -0.29065
C         12.19346        12.75473        -0.12637
C         13.44483        15.01256        -0.09826
C         12.16432        14.25261        -0.14841
C         13.47343        16.35554         0.11589
C         12.21040        17.12539         0.26027
C         13.54204        19.23917         0.75382
C         12.27803        18.43019         1.02737
C         13.55378        20.59044         0.92374
C         12.28698        21.36905         1.00778
C         13.67644        23.42060         0.21202
C         12.33044        22.71504         0.34004
C         13.62368        24.90367         0.15501
C         12.43296        25.57809        -0.00759
C         13.66856        27.82106         0.17374
C         12.41242        27.06156         0.16967
C         13.63782        29.25141         0.13474
C         12.41245        29.95355        -0.15101
C         16.10081         3.43449        -0.31071
C         14.88424         4.12651         0.18880
C         15.96211         6.35148        -0.51361
C         14.87883         5.63523         0.21941
C         15.99721         7.82526        -0.43182
C         14.76116         8.51789        -0.24431
C         15.94790        10.62186        -0.68250
C         14.74060         9.93801        -0.42033
C         15.95066        12.07162        -0.93460
C         14.61973        12.80724        -0.71796
C         15.99764        14.95909        -0.44607
C         14.70180        14.24088        -0.28924
C         15.97371        16.45425        -0.49024
C         14.70540        17.16504        -0.11868
C         15.99235        19.22795         0.38006
C         14.79027        18.55455         0.40821
C         16.11766        20.54244         1.09494
C         14.79530        21.32663         1.39809
C         15.77897        23.59882         1.41664
C         14.81426        22.78452         0.92873
C         16.08523        24.92664         0.86659
C         14.89977        25.65150         0.27481
C         16.08458        27.82801         0.53838
C         14.89098        27.13246         0.30610
C         16.08376        29.26077         0.49573
C         14.86082        29.94291         0.26965
C         18.51625         3.47239        -0.86261
C         17.24171         4.12007        -0.62470
C         18.45816         6.35936        -0.93917
C         17.20190         5.59139        -0.85311
C         18.44284         7.77636        -0.87635
C         17.19835         8.50204        -0.67935
C         18.42325        10.65803        -0.83453
C         17.19629         9.93717        -0.72122
C         18.41968        12.10775        -0.83522
C         17.21316        12.80827        -0.87471
C         18.47383        15.01712        -0.80349
C         17.18324        14.29806        -1.14608
C         18.46862        16.45340        -0.60523
C         17.26921        17.15526        -0.41611
C         18.57429        19.33980        -0.16697
C         17.20682        18.61150        -0.23615
C         18.67029        20.59835         0.55062
C         17.50642        21.18459         1.20559
C         18.70195        23.41876         1.16997
C         17.70652        22.59705         1.61985
C         18.70689        24.92289         1.49524
C         17.31903        25.66680         1.32240
C         18.58751        27.85082         0.84537
C         17.31101        27.13107         1.00196
C         18.55661        29.27231         0.72978
C         17.31292        29.95864         0.64514
C         19.65217         4.19383        -1.07112
C         20.87418         6.37305        -1.16779
C         19.66830         5.64626        -1.06120
C         20.86755         7.75993        -1.13774
C         19.66732         8.49422        -0.98522
C         20.85023        10.69868        -1.01329
C         19.65936         9.95235        -0.93828
C         20.85224        12.09546        -0.97678
C         19.66746        12.83450        -0.88007
C         20.90807        15.00961        -0.67177
C         19.66614        14.29179        -0.79400
C         20.94402        16.37071        -0.59369
C         19.74317        17.15975        -0.53740
C         21.04501        19.29008        -0.28517
C         19.80349        18.54454        -0.33261
C         21.12760        20.57910         0.12112
C         19.99255        21.27377         0.81649
C         20.84927        23.55322         0.00924
C         19.86904        22.78217         0.56649
C         20.76386        24.98975         0.03423
C         19.78544        25.66536         0.70638
C         21.00220        27.86537         0.63533
C         19.79913        27.13725         0.75081
C         20.98959        29.26604         0.61342
C         19.79228        29.96943         0.64616
O         15.11288        17.02995        -1.53445
O          5.77642        15.59264         2.15362
O         11.61904        21.21640         2.29626
O          0.28199        11.03682         1.66760
O          8.32325        22.63878        -1.72477
O          8.89650        25.46023         0.67266
O          0.73193         6.64452         1.36324
O         17.08276        26.58658         2.41989
O          2.23192        12.39154         2.69519
O          4.27069        16.53255        -0.93775
O          7.42106         4.72370        -1.21615
O         15.26847         4.91143         1.41450
O         17.70885        19.39312        -1.37324
O          3.02495        14.82907         2.11304
O          4.88637         8.90017         2.25361
O         16.66679        23.13382         2.40032
O         11.49655        27.46642         1.25921
O         16.91643        20.33524         2.31369
O          2.25383        26.08528        -2.46426
O          8.45767        27.10625        -2.49239
O         13.12600        22.67042        -0.90318
O         16.18936         5.90455        -1.89835
O         15.92851        25.02670        -0.58649
O         11.41535        17.08567        -0.95075
O         15.64708        14.40294         0.85435
O         15.08915        12.51663        -2.07381
O          4.83784        21.56293        -1.74823
O          9.43476        22.51998         1.68667
O         12.96905         6.08865         1.69446
O         11.94356        13.54965        -1.42263
O         20.28732        21.14557         2.25038
H         19.61493        21.66105         2.74714
O          8.40114        19.49823         2.60197
H          9.05205        20.19796         2.82846
O          2.59498        23.12280         1.48049
H          1.82664        22.74834         1.96328
O          4.89484        13.99629        -1.03109
H          4.81606        14.91728        -1.39056
O         10.09071        12.68757         2.39709
H          9.27726        13.00382         2.84637
O          2.17994         9.65029         2.59809
H          2.14199        10.60663         2.90427
O         19.05993        25.03306         2.88735
H         18.56257        25.80480         3.25173
O         12.44015        18.02608         2.42314
H         12.46439        18.84322         2.96872
O         16.98670        14.46638        -2.57746
H         16.22953        13.88645        -2.83670
O         14.62585        21.33821         2.83133
H         15.51029        21.15339         3.23132
H          1.46401         2.36973        -1.26277
H         -0.69675         3.59730        -1.50306
H         -0.94662         5.87226        -0.56583
H         -0.64406         7.87646        -0.96659
H         -0.56295        10.31727        -0.91584
H         -0.96497        12.22736        -0.21154
H         -0.89068        14.64978        -0.35264
H         -1.14106        16.55359         0.65752
H         -1.12575        18.97860         0.40378
H         -1.07812        20.92357         0.19755
H         -1.05288        23.30230        -0.26994
H         -0.96387        25.35379        -0.26835
H         -0.81018        27.77407        -0.53774
H          0.58294        29.88316        -0.78492
H          3.80693         2.30412        -0.52270
H          2.76587        30.94106        -1.18530
H          6.02253         2.30339         0.64350
H          5.22065        30.78596        -1.46073
H          8.87280         2.27989         0.57208
H          7.48445        30.76221        -1.45614
H         11.12916         2.37103         0.15599
H          9.97160        31.04872        -0.84512
H         13.55469         2.37025         0.00911
H         12.46953        31.04285        -0.29725
H         16.12129         2.33446        -0.26111
H         14.86613        31.04178         0.21855
H         18.55693         2.37354        -0.83206
H         17.31339        31.05743         0.59536
H         20.61015         3.67396        -1.21964
H         21.82451         5.83174        -1.27895
H         21.82618         8.28693        -1.23209
H         21.81779        10.18712        -1.09821
H         21.82232        12.60540        -1.04055
H         21.85730        14.45853        -0.66412
H         21.91940        16.87045        -0.52912
H         21.95664        18.80439        -0.66293
H         22.10362        21.08504         0.09951
H         21.74025        23.09482        -0.44116
H         21.55186        25.55299        -0.48768
H         21.96225        27.33370         0.58670
H         21.94101        29.81221         0.54721
H         19.78974        31.06689         0.58508
