         324
 CSIRO Nanostructure Databank - Neutral Graphene Oxide Data Set
C          1.26558         2.02014        -0.92759
C          1.26773         3.41584        -1.08604
C          2.44396         1.33446        -0.67575
C          2.46447         4.13987        -0.99290
C          1.39016         6.47724        -1.61699
C          1.35416         7.91553        -1.27672
C          2.52225         5.63393        -1.14676
C          2.38140         8.56227        -0.65416
C          1.22678        10.76066        -0.62921
C          1.22655        12.15739        -0.57539
C          2.40945        10.02410        -0.51220
C          2.41648        12.87707        -0.42450
C          1.23276        15.15100        -0.79110
C          1.29764        16.50272        -0.92650
C          2.37684        14.36373        -0.29161
C          2.52198        17.24794        -0.74591
C          2.57186        18.65477        -0.93877
C          3.67632         2.03698        -0.57505
C          3.66820         3.45397        -0.72718
C          4.90058         1.34998        -0.34800
C          4.95933         4.18151        -0.71132
C          3.55980         6.26486        -0.22615
C          3.55356         7.79862        -0.15031
C          4.92729         5.68265        -0.57757
C          4.85608         8.53840         0.00972
C          3.64957        10.72859        -0.31548
C          3.64512        12.17039        -0.29734
C          4.87077        10.01595        -0.14881
C          4.90334        12.87828        -0.20837
C          3.68893        15.10808        -0.14796
C          3.72671        16.55659        -0.46564
C          4.95228        14.33726        -0.23874
C          4.94250        17.25372        -0.42645
C          3.76620        19.34531        -0.87745
C          5.00002        18.66401        -0.64466
C          6.13092         2.03528        -0.18394
C          6.18319         3.45784        -0.30679
C          7.33593         1.33958         0.10493
C          7.36374         4.15221        -0.00174
C          6.17054         6.42248        -0.25026
C          6.13893         7.78117        -0.08874
C          7.43065         5.62716        -0.24741
C          7.38399         8.57991        -0.05183
C          6.09537        10.71565         0.05756
C          6.08838        12.15295        -0.05094
C          7.30866        10.01229         0.26692
C          7.38244        12.83840        -0.17955
C          6.13876        15.03591        -0.26411
C          6.18041        16.51364        -0.13018
C          7.41976        14.33022        -0.37167
C          7.49872        17.24309        -0.25679
C          6.24314        19.34831        -0.69969
C          7.49469        18.67305        -0.65777
C          8.51849         2.02216         0.38074
C          8.52917         3.43985         0.38715
C          9.74818         1.20511         0.73736
C          9.71742         4.16520         0.92242
C          8.71084         6.35868         0.02768
C          8.70920         7.86024         0.06715
C          9.80614         5.65847         0.76730
C          9.90418         8.55482         0.61052
C          8.57196        10.69564         0.56798
C          8.60900        12.20686         0.38325
C          9.86767         9.98331         0.60197
C          9.89732        12.85449         0.04587
C          8.71507        15.03205         0.02331
C          8.74611        16.46654        -0.45947
C          9.90385        14.18293        -0.37479
C          9.88128        17.07580        -0.86686
C          8.68498        19.28199        -1.02116
C          9.95224        18.52111        -1.29424
C         11.04825         1.97560         0.67188
C         11.00448         3.40246         1.08579
C         12.24246         1.34096         0.50010
C         12.28776         4.17306         1.10922
C         11.10748         6.37982         0.88261
C         11.07484         7.83294         0.89010
C         12.26297         5.66140         1.08646
C         12.28837         8.58520         1.26822
C         11.06749        10.73354         0.54797
C         11.08694        12.08886         0.14882
C         12.31985        10.08098         0.99236
C         12.34478        12.66860        -0.36410
C         11.14061        14.80610        -0.85230
C         11.15757        16.32609        -1.02027
C         12.41997        14.11465        -0.64294
C         12.40237        17.00631        -0.68306
C         11.16427        19.15870        -0.65726
C         12.33738        18.42900        -0.38945
C         13.52410         2.02066         0.58718
C         13.52151         3.52934         0.48870
C         14.71059         1.33905         0.64933
C         14.80907         4.17148         0.95579
C         13.55693         6.31902         1.37923
C         13.59069         7.84855         1.43657
C         14.81067         5.58458         1.18733
C         14.85669         8.50254         1.08793
C         13.67851        10.79843         0.80415
C         13.60814        11.90079        -0.27091
C         14.85761         9.84472         0.57099
C         14.89747        12.60096        -0.68420
C         13.62553        14.80760        -0.62255
C         13.60300        16.27491        -0.53201
C         14.91078        14.11047        -0.64189
C         14.77068        16.95940        -0.10783
C         13.51112        19.07444         0.07825
C         14.73285        18.36363         0.24925
C         15.98906         2.00975         0.81541
C         15.98196         3.44107         1.03500
C         17.19261         1.32346         0.79599
C         17.23396         4.09528         1.57502
C         16.03500         6.29487         1.26702
C         16.04393         7.72961         1.11764
C         17.26792         5.57860         1.31511
C         17.30740         8.37648         0.95196
C         16.05170        10.42535         0.17888
C         16.13182        11.70719        -0.56463
C         17.30007         9.82969         0.69112
C         17.47725        12.26594        -0.77347
C         16.07049        14.87825        -0.50003
C         16.01449        16.25480        -0.02462
C         17.40992        14.38349        -0.73912
C         17.14363        16.83922         0.54033
C         15.86572        18.97069         0.79913
C         17.07617        18.18730         1.22020
C         18.46861         2.00552         0.89407
C         18.50123         3.39392         1.16042
C         19.68612         1.32302         0.67013
C         19.73362         4.10348         1.15545
C         18.49687         6.25269         1.25635
C         18.49822         7.67280         1.07437
C         19.75177         5.53018         1.25209
C         19.80063         8.33843         0.86355
C         18.58267        10.57267         0.57686
C         18.62589        11.84272        -0.18184
C         19.85248         9.79687         0.53267
C         19.89845        12.58118        -0.26368
C         18.53464        14.82857        -0.08321
C         18.40043        16.08416         0.67694
C         19.84382        14.14814        -0.17486
C         19.68188        16.85284         0.94251
C         18.36540        18.95928         1.02618
C         19.60203        18.33643         0.96007
C         20.92856         1.98906         0.72982
C         20.96298         3.40202         0.98681
C         22.14610         1.32709         0.39502
C         22.20807         4.10413         1.06741
C         21.00088         6.22076         1.28171
C         21.01843         7.63460         1.26728
C         22.23612         5.47448         1.27379
C         22.23090         8.40279         1.49790
C         21.09208        10.58108         0.62634
C         21.12438        11.92914         0.25379
C         22.26900         9.90285         1.15874
C         22.31828        12.69932         0.37825
C         21.04707        14.82372         0.35096
C         20.98187        16.19967         0.65783
C         22.29146        14.12155         0.41937
C         22.16549        16.95127         0.78476
C         20.83362        19.04698         0.92897
C         22.09271        18.39279         0.92059
C         23.37626         1.99853         0.37345
C         23.51398         3.33769         1.06558
C         24.48351         1.43265        -0.26406
C         24.69044         4.17554         0.57690
C         23.54325         6.17896         1.44741
C         23.53729         7.67603         1.55788
C         24.77920         5.52655         0.93108
C         24.79486         8.42499         1.32064
C         23.58470        10.50991         0.84143
C         23.59990        11.98006         0.48195
C         24.81501         9.80996         1.25045
C         24.85402        12.73033         0.72096
C         23.51207        14.85162         0.65123
C         23.43564        16.28672         0.76187
C         24.77239        14.18272         0.73420
C         24.60418        17.05124         0.95244
C         23.29449        19.12826         0.96020
C         24.55882        18.48540         0.95932
C         25.64948         2.19079        -0.56105
C         25.75434         3.56695        -0.13559
C         26.64031         1.64410        -1.38962
C         26.87949         4.35527        -0.52018
C         25.99659         6.28496         0.76832
C         26.01386         7.67196         1.20087
C         27.05830         5.67659         0.00198
C         27.20655         8.46466         1.30873
C         26.06740        10.61972         1.49014
C         26.02147        12.06467         1.02039
C         27.31863         9.83398         1.12755
C         27.28469        12.81984         1.18367
C         25.96834        14.91864         0.93623
C         25.87104        16.36159         1.15532
C         27.24557        14.29520         0.95989
C         27.17982        17.20113         0.98931
C         25.75717        19.23518         0.81232
C         27.01332        18.62224         0.64264
C         27.68766         2.44344        -1.89004
C         27.81564         3.79774        -1.46044
C         28.59166         1.91612        -2.86979
C         28.83956         4.60714        -2.03927
C         28.24437         6.40245        -0.44609
C         28.77944         7.48106         0.23854
C         29.03279         5.93803        -1.57528
C         29.76419         8.41962        -0.29570
C         28.71459        10.49453         1.19993
C         28.60492        12.05366         1.13911
C         29.75810         9.91101         0.17711
C         29.80893        12.83640         0.67513
C         28.42981        15.05795         0.80372
C         28.37542        16.46620         0.58920
C         29.74004        14.39340         0.60653
C         29.45456        17.20107         0.02326
C         28.12801        19.30153         0.12691
C         29.33271        18.62264        -0.17343
C         29.54603         2.70971        -3.44883
C         29.68962         4.07612        -3.05390
C         30.67893         4.90983        -3.62989
C         30.06483         6.73936        -2.13118
C         30.33357         8.07179        -1.61097
C         30.85370         6.20614        -3.18489
C         31.06329         9.02478        -2.29412
C         30.53263        10.83257        -0.68797
C         30.73256        12.20946        -0.27355
C         31.18235        10.35138        -1.81553
C         31.79216        12.95920        -0.77364
C         30.76669        15.09949        -0.18307
C         30.65754        16.53589        -0.37989
C         31.83368        14.36668        -0.68272
C         31.70008        17.29053        -0.93654
C         30.42492        19.33991        -0.73468
C         31.58445        18.68127        -1.10192
O          8.42538         5.87674        -1.31539
O         12.10171         9.55762         2.33443
O          5.07112         5.07488        -1.89325
O         28.07135        12.52169         2.40300
O         23.66717         6.82525         2.75919
O         22.11234         9.44534         2.53557
O         13.58688         7.05927         2.65812
O          9.36521         5.05804         2.03396
O          2.50577         6.13168        -2.51086
O         17.89146        10.61000         1.85633
O          4.00653         8.19560         1.18930
O         20.10760        13.42511        -1.41540
O         30.35469        13.66801         1.72143
O         15.38590        11.85424        -1.83699
O         26.64992        16.84228         2.28990
O         18.97776        16.15352         2.03819
O         30.66325         8.92078         0.75089
O         23.70928        10.93123        -0.56655
O         19.90429         8.82131        -0.57810
O         13.98921        11.44660         1.99179
O         11.75299         3.60977         2.33946
O         17.52305        13.34075        -1.67326
O          8.44702        11.66474         1.70289
O         11.11082        15.45671        -2.19426
O          2.87035        14.79924         1.02879
O         28.39375         7.73202         1.54808
O          6.89653        17.00206         1.07539
O          7.57109        13.43640        -1.51370
O         12.79914        11.69522        -1.45286
O          8.28507         8.39853        -1.22443
O          3.23070         5.77227         1.09625
H          3.53675         6.45287         1.74221
O         16.93583        17.93268         2.66694
H         17.63759        17.27615         2.89938
O         23.80881         3.01821         2.46259
H         23.85911         3.86333         2.95917
O         13.39111         3.85361        -0.93633
H         14.15825         3.46201        -1.40505
O         10.14054        18.54088        -2.75523
H         10.64059        17.73611        -3.01244
O          8.75617        15.08004         1.47623
H          8.08548        15.75181         1.76148
O         29.24664        10.23478         2.50681
H         29.64312         9.33332         2.48899
O         17.16824         3.93551         3.04316
H         16.37032         4.41564         3.35376
O         26.13115        10.74492         2.95555
H         26.97299        11.22717         3.16398
O          9.80658         0.02178        -0.06179
H          9.87179         0.28603        -1.00209
H          0.31751         1.47012        -1.00492
H          0.32139         3.93890        -1.28349
H          2.43699         0.24186        -0.55571
H          0.42756         6.00862        -1.90651
H          0.49491         8.48752        -1.65629
H          0.26519        10.24173        -0.74123
H          0.26614        12.68577        -0.64017
H          0.30173        14.63036        -1.05712
H          0.40711        17.05601        -1.26049
H          1.63649        19.19585        -1.14281
H          4.88743         0.25340        -0.26303
H          3.78094        20.43364        -1.03274
H          7.33136         0.24060         0.14084
H          6.23706        20.42469        -0.92896
H          9.62590         0.85899         1.80281
H          8.67293        20.34554        -1.30624
H         12.24316         0.25359         0.32392
H         11.15549        20.24084        -0.45803
H         14.70533         0.23781         0.63459
H         13.47424        20.14629         0.32233
H         17.19519         0.23615         0.62755
H         15.81537        20.03245         1.08607
H         19.66646         0.24631         0.44412
H         18.32349        20.05920         1.04388
H         22.09723         0.29442         0.01505
H         20.81058        20.14600         0.97900
H         24.39940         0.41782        -0.68349
H         23.25297        20.22728         0.98671
H         26.55062         0.59986        -1.72426
H         25.67742        20.32326         0.66856
H         28.48274         0.86447        -3.17170
H         28.05015        20.37542        -0.09901
H         30.22047         2.30417        -4.21645
H         31.32569         4.50759        -4.42241
H         31.65009         6.82005        -3.62672
H         31.51026         8.78806        -3.26891
H         31.76513        11.05041        -2.43030
H         32.58406        12.46609        -1.35294
H         32.67136        14.87788        -1.17569
H         32.63796        16.80464        -1.23610
H         30.33239        20.42601        -0.87672
H         32.42475        19.24407        -1.53129
