         620
 CSIRO Nanostructure Databank - Neutral Graphene Oxide Data Set
C         22.94814        27.40519        -0.23899
C         22.89663        28.75882        -0.25128
C         22.93260        31.71294        -0.05088
C         22.93218        33.08570         0.17621
C         22.87651        36.03313         0.23270
C         22.88662        37.39049         0.17053
C         22.82304        40.30232        -0.19245
C         22.79815        41.68221        -0.44985
C         22.75119        44.64266        -0.61015
C         22.83550        45.90627        -0.14893
C         25.41080        24.57715        -0.19623
C         24.21370        25.26715        -0.22653
C         25.42039        27.37282        -0.41213
C         24.19665        26.67818        -0.33520
C         25.42367        28.83067        -0.61693
C         24.09224        29.56926        -0.54801
C         25.37514        31.70785        -0.14617
C         24.13295        31.01630        -0.22699
C         25.37097        33.11778         0.09186
C         24.13334        33.79959         0.24317
C         25.39927        36.02588         0.54705
C         24.09447        35.25822         0.52435
C         25.35912        37.49878         0.31167
C         24.08868        38.18366         0.23088
C         25.25906        40.40079         0.05505
C         24.02146        39.59699         0.03955
C         25.21948        41.78291        -0.49053
C         23.96391        42.43694        -0.61621
C         25.25507        44.60631        -0.86258
C         23.94532        43.87629        -1.11099
C         25.30247        45.92377        -0.51214
C         24.09691        46.62244        -0.09032
C         25.41282        48.63632         0.38724
C         24.17038        47.91344         0.36959
C         27.95923        23.13352        -0.05213
C         27.91466        24.53884        -0.21393
C         26.65423        25.25683        -0.23903
C         27.89408        27.41428        -0.35197
C         26.65295        26.67688        -0.33055
C         27.89097        28.84920        -0.30665
C         26.66499        29.58413        -0.36484
C         27.86987        31.71812        -0.11634
C         26.63427        30.98720        -0.23512
C         27.84346        33.12070         0.06428
C         26.62814        33.84244         0.16965
C         27.87037        35.98839         0.22906
C         26.65302        35.26997         0.30425
C         27.85174        37.47009         0.26130
C         26.55618        38.17541         0.15938
C         27.76388        40.30279        -0.50739
C         26.59821        39.65031         0.12703
C         27.53611        41.52583        -1.12441
C         26.40046        42.37658        -0.94972
C         27.72119        44.47011        -0.49009
C         26.52589        43.88099        -1.26498
C         27.71012        45.86814         0.16829
C         26.62282        46.67716        -0.58703
C         27.86327        48.87230        -0.23550
C         26.57251        48.09540        -0.07216
C         27.89704        50.21170         0.45662
C         30.38965        23.11070        -0.21654
C         29.15555        22.44061        -0.03688
C         30.36009        24.51230        -0.38581
C         29.14080        25.24768        -0.35859
C         30.33362        27.44128        -0.42516
C         29.12224        26.70353        -0.40074
C         30.35320        28.84777        -0.30520
C         29.12257        29.56681        -0.23971
C         30.36170        31.69698        -0.22088
C         29.12508        31.00019        -0.18668
C         30.32513        33.19801        -0.37522
C         29.14950        33.82634         0.36794
C         30.33835        36.01859         0.03231
C         29.10681        35.32244         0.13504
C         30.39969        37.43377        -0.14906
C         29.13381        38.20914        -0.05953
C         30.44387        40.34073        -0.72995
C         29.07203        39.60082        -0.63001
C         30.46438        41.79299        -0.40008
C         29.34242        42.53867        -0.77976
C         30.49406        44.62094         0.63832
C         28.74692        43.64138        -0.09497
C         30.37003        45.98956         0.35309
C         29.08425        46.65081         0.18317
C         30.34005        48.79719         0.21264
C         29.09861        48.04245         0.10948
C         30.33762        50.21497         0.36029
C         29.07245        50.85890         0.62859
C         32.89591        20.27580        -0.09039
C         31.69832        20.97248        -0.13872
C         32.90193        23.07603        -0.29112
C         31.66239        22.38197        -0.22490
C         32.91752        24.50722        -0.39612
C         31.63280        25.21568        -0.62676
C         32.85455        27.44392        -0.29750
C         31.60084        26.71657        -0.63796
C         32.81992        28.90739        -0.46177
C         31.61104        29.57933        -0.34329
C         32.84943        31.74234        -0.21726
C         31.59631        31.02464        -0.29414
C         32.85265        33.15841         0.01142
C         31.61400        33.88975         0.01474
C         32.79199        36.02464         0.45560
C         31.57296        35.26866         0.14226
C         32.83428        37.45549         0.15196
C         31.62993        38.12248        -0.16684
C         32.89428        40.29954         0.05714
C         31.76055        39.56422        -0.62655
C         32.86366        41.69438         0.24998
C         31.61878        42.41894         0.19570
C         32.88295        44.55506         0.42068
C         31.65042        43.83050         0.43698
C         32.86185        45.97191         0.34267
C         31.61385        46.70311         0.22596
C         32.84389        48.86887         0.09598
C         31.58403        48.10525         0.17865
C         32.82587        50.32447         0.34528
C         31.57102        50.98359         0.39325
C         32.79253        53.10619         0.49848
C         31.59775        52.40141         0.47978
C         35.43946        18.81244         0.11324
C         35.39671        20.22254        -0.04337
C         34.14382        20.93990        -0.12565
C         35.38609        23.07080        -0.30480
C         34.14637        22.36430        -0.23866
C         35.37712        24.50887        -0.35088
C         34.11988        25.20210        -0.37381
C         35.41574        27.38981        -0.38232
C         34.13945        26.67755        -0.25388
C         35.41810        28.85650        -0.53999
C         34.07996        29.62964        -0.61649
C         35.33902        31.72901        -0.17125
C         34.09454        31.06373        -0.31317
C         35.33336        33.14578         0.01115
C         34.09196        33.82594         0.14565
C         35.35935        36.00539         0.26977
C         34.11886        35.25166         0.47651
C         35.31352        37.42327         0.29332
C         34.07968        38.14373         0.22700
C         35.34134        40.27431         0.42703
C         34.10347        39.57994         0.22403
C         35.33516        41.71001         0.49831
C         34.09932        42.40509         0.46266
C         35.32669        44.55241         0.58385
C         34.10514        43.83400         0.48615
C         35.30122        45.97120         0.63388
C         34.10413        46.66007         0.43585
C         35.37592        48.84330         0.59552
C         34.14176        48.11723         0.23053
C         35.29131        50.30008         0.78419
C         34.03749        51.03417         0.49162
C         35.32250        53.18828         0.51860
C         34.04911        52.45163         0.52724
C         35.37007        54.58500         0.30385
C         37.88277        18.81296         0.15590
C         36.63646        18.13566         0.21876
C         37.87458        20.22807        -0.03678
C         36.62950        20.93078        -0.11355
C         37.86398        23.05133        -0.36897
C         36.62584        22.35827        -0.25952
C         37.84095        24.50816        -0.58169
C         36.58215        25.23619        -0.39183
C         37.86532        27.38716        -0.17593
C         36.60976        26.67596        -0.37100
C         37.78836        28.80470         0.24498
C         36.59881        29.59994        -0.11266
C         37.80791        31.74070         0.21205
C         36.59128        31.00131        -0.04581
C         37.79682        33.13144         0.18267
C         36.57002        33.86027         0.10105
C         37.80306        36.02842         0.00575
C         36.57273        35.29340         0.14624
C         37.76224        37.42702         0.05199
C         36.54891        38.15011         0.27876
C         37.85764        40.25896         0.73961
C         36.55700        39.55406         0.43230
C         37.83462        41.73796         0.44668
C         36.56870        42.44343         0.48998
C         37.79893        44.60666         0.35996
C         36.56732        43.84640         0.52043
C         37.78947        45.96692         0.48496
C         36.57435        46.68722         1.00927
C         37.82469        48.90299         0.77119
C         36.56505        48.17632         0.74338
C         37.85194        50.31507         0.80351
C         36.58764        51.06804         0.95299
C         37.79098        53.21531         0.59423
C         36.56491        52.51936         0.66390
C         37.82015        54.61193         0.35701
C         36.57462        55.26922         0.22072
C         40.38638        16.05696         0.74127
C         39.18713        16.71473         0.57260
C         40.35912        18.83259         0.18477
C         39.13392        18.11165         0.29901
C         40.34727        20.24353        -0.05703
C         39.11031        20.94411        -0.14004
C         40.35090        23.09322        -0.30872
C         39.09804        22.36838        -0.30804
C         40.37802        24.50917        -0.22453
C         39.14833        25.28555        -0.46664
C         40.31035        27.42795         0.17732
C         39.07996        26.72323        -0.11237
C         40.33592        28.79867         0.34851
C         39.08117        29.53659         0.55616
C         40.34137        31.72080         0.09423
C         39.09932        31.06021         0.68007
C         40.28560        33.09427        -0.08560
C         39.09299        33.88944         0.40729
C         40.24066        35.99443        -0.36476
C         39.06083        35.31934        -0.10706
C         40.24872        37.45384        -0.59094
C         38.95331        38.20667        -0.29974
C         40.26187        40.27634         0.01052
C         39.05551        39.60432         0.09477
C         40.28629        41.70455         0.23498
C         39.01875        42.40787         0.25848
C         40.31166        44.53775         0.37526
C         39.04029        43.86824        -0.11164
C         40.32794        46.00998         0.29946
C         39.01267        46.76485         0.27095
C         40.27706        48.89135         0.50467
C         39.04295        48.20383         0.57519
C         40.30451        50.31647         0.60770
C         39.07973        51.00924         0.73089
C         40.36238        53.22689         0.71083
C         39.05511        52.48497         0.85914
C         40.32355        54.63804         0.28144
C         39.09644        55.32208         0.19566
C         40.31043        57.38216        -0.31324
C         39.12399        56.71444        -0.11711
C         42.87004        16.09404         0.80223
C         41.62034        16.75382         0.63357
C         42.83976        18.84934         0.19313
C         41.60389        18.14721         0.34347
C         42.80486        20.22787        -0.14277
C         41.58893        20.94241        -0.20992
C         42.80662        23.11380        -0.30220
C         41.58852        22.38499        -0.30119
C         42.82898        24.51003        -0.08079
C         41.58569        25.19093         0.01415
C         42.88480        27.36066         0.20792
C         41.56461        26.63317         0.29194
C         42.78233        28.80025        -0.14980
C         41.63776        29.56837         0.49741
C         42.78730        31.62283        -0.35681
C         41.56871        30.98414        -0.03277
C         42.77463        33.07681        -0.60417
C         41.48266        33.83381        -0.49471
C         42.71023        35.99211        -0.45023
C         41.51853        35.31232        -0.36425
C         42.74658        37.45574        -0.63496
C         41.50156        38.20780        -0.45065
C         42.76770        40.29267        -0.04175
C         41.51336        39.57864        -0.24261
C         42.75222        41.68210         0.31910
C         41.49159        42.38746         0.38225
C         42.67105        44.49692         1.15115
C         41.45681        43.82822         0.61497
C         42.71972        46.04772         1.11596
C         41.53545        46.76955         0.60647
C         42.79195        48.87324         0.31833
C         41.51866        48.14374         0.48341
C         42.79832        50.33234         0.40857
C         41.57474        51.03865         0.53138
C         42.81196        53.13233         0.22533
C         41.60123        52.45169         0.49547
C         42.81170        54.58770         0.04551
C         41.56329        55.29518         0.01647
C         42.78843        57.37524        -0.42243
C         41.55620        56.69594        -0.25116
C         44.05991        16.78059         0.68720
C         45.33231        18.88467         0.24996
C         44.09152        18.17006         0.37511
C         45.34414        20.22943        -0.18944
C         44.06699        20.89368        -0.47844
C         45.34775        23.12135        -0.38195
C         44.07010        22.41918        -0.57011
C         45.34239        24.51704        -0.27702
C         44.09403        25.23477        -0.13920
C         45.32288        27.37051        -0.40818
C         44.11300        26.62689        -0.13016
C         45.29364        28.74462        -0.63188
C         44.03204        29.50012        -0.59667
C         45.29523        31.66874        -0.65050
C         44.03986        30.96836        -0.49580
C         45.31956        33.11617        -0.49457
C         44.03541        33.80547        -0.27373
C         45.28334        36.03879        -0.28733
C         44.00142        35.30259        -0.22710
C         45.30125        37.43522        -0.25677
C         44.05691        38.19784        -0.49791
C         45.22627        40.26441         0.21732
C         43.99847        39.61299        -0.09867
C         45.21364        41.64244         0.61429
C         43.96288        42.34180         0.63826
C         45.03388        44.14415         1.83471
C         43.92128        43.69527         1.17170
C         45.10595        46.30870         1.72718
C         44.00248        46.78119         1.08225
C         45.33597        48.92980         0.76011
C         44.11081        48.13359         0.49645
C         45.31244        50.28310         0.41271
C         44.03879        51.00170         0.27597
C         45.21821        53.11218        -0.43935
C         44.01442        52.40477         0.11062
C         45.34196        54.55295         0.05666
C         44.01766        55.28978        -0.12123
C         43.98523        56.68932        -0.32777
C         47.77508        18.91275         0.38272
C         46.60180        18.29496         0.64179
C         47.82608        20.16716        -0.46019
C         46.55236        20.96266        -0.33020
C         47.81640        23.10394        -0.30000
C         46.56949        22.37849        -0.39001
C         47.82986        24.51307        -0.28947
C         46.58709        25.24375        -0.31114
C         47.81424        27.38676        -0.50430
C         46.57598        26.64538        -0.41643
C         47.79707        28.75790        -0.71645
C         46.52145        29.46916        -1.11839
C         47.74272        31.71865        -1.04386
C         46.49538        30.96678        -0.82971
C         47.76216        33.22022        -0.79041
C         46.48325        33.86394        -0.44934
C         47.73251        35.98720        -0.09470
C         46.50133        35.29919        -0.24524
C         47.75095        37.41074         0.01475
C         46.51880        38.15343        -0.08180
C         47.70227        40.33899         0.17542
C         46.46175        39.56382         0.11425
C         47.69366        41.68964         0.77105
C         46.43947        42.26571         1.02051
C         47.60540        44.45167         1.84177
C         46.37241        43.55534         1.73383
C         47.49209        45.95897         1.92093
C         46.45531        46.80454         1.57727
C         47.92559        48.99872         0.80694
C         46.57121        48.27593         1.24978
C         47.78300        50.29290         0.11625
C         46.55005        50.99118         0.14206
C         47.66276        52.99521        -0.74959
C         46.51427        52.34816        -0.29518
C         47.59716        54.43419        -1.00189
C         46.53893        55.18289        -0.62877
C         50.32851        20.27625        -0.36879
C         49.08192        20.97543        -0.24466
C         50.29596        23.10552         0.07588
C         49.04992        22.35964        -0.17087
C         50.32628        24.56102        -0.16529
C         49.08002        25.25537        -0.27805
C         50.31096        27.38055        -0.40524
C         49.07229        26.66469        -0.38956
C         50.33798        28.80069        -0.55976
C         49.06801        29.47820        -0.90386
C         50.31369        31.74392        -0.76520
C         49.04966        30.97253        -1.05883
C         50.19155        33.08061        -0.09921
C         48.99553        33.89673        -0.34112
C         50.20435        35.92446         0.38730
C         48.97608        35.24049         0.01193
C         50.18385        37.35938         0.51199
C         48.98187        38.07668         0.26230
C         50.19867        40.24064         0.73064
C         49.02132        39.53960         0.22770
C         50.15419        41.67176         0.89980
C         48.92884        42.37297         1.03482
C         50.26867        44.59087         1.01629
C         48.95860        43.82481         1.41853
C         50.31362        46.02865         0.62799
C         49.38773        46.94843         1.10689
C         50.13282        48.70447        -0.37180
C         49.16358        48.22587         0.53104
C         50.06450        50.07159        -0.85323
C         48.90376        50.86350        -0.56000
C         49.95856        52.75898        -1.69507
C         48.85448        52.22776        -0.98613
C         51.53220        20.91419        -0.34061
C         52.86322        23.09863        -0.23853
C         51.62417        22.32872         0.02164
C         52.82650        24.51385        -0.29411
C         51.55567        25.23977        -0.24964
C         52.76247        27.40635        -0.41515
C         51.54702        26.67284        -0.34695
C         52.78122        28.81374        -0.38164
C         51.54380        29.51018        -0.49689
C         52.77577        31.67751         0.03842
C         51.59044        30.99069        -0.54988
C         52.74936        33.04299         0.31635
C         51.44753        33.75442         0.40808
C         52.65950        35.90915         0.71430
C         51.42118        35.22372         0.51567
C         52.64033        37.33874         0.85136
C         51.39752        38.06941         0.78036
C         52.61777        40.24817         1.13763
C         51.37067        39.49496         0.91682
C         52.62925        41.66915         0.74016
C         51.41029        42.38513         0.78621
C         52.57568        44.39790         0.02931
C         51.41097        43.77951         0.53838
C         52.53995        45.77269        -0.39776
C         51.36078        46.54236        -0.19526
C         52.41050        48.45187        -1.32986
C         51.29826        47.90070        -0.65049
C         52.27944        49.76400        -2.06566
C         51.12256        50.62175        -1.59792
C         51.04566        51.96524        -2.01694
C         55.27807        23.13110        -0.54970
C         54.09027        22.43142        -0.39543
C         55.28735        24.54159        -0.58941
C         54.04426        25.21521        -0.50133
C         55.31080        27.45416        -0.61472
C         54.00875        26.67508        -0.66854
C         55.25970        28.87210        -0.21522
C         54.02971        29.55178        -0.20715
C         55.21579        31.64963         0.40657
C         54.00833        30.95583         0.09202
C         55.19435        33.06921         0.68191
C         53.95441        33.75672         0.62228
C         55.12508        35.88866         0.98452
C         53.89714        35.18828         0.80012
C         55.10437        37.32605         0.92777
C         53.87536        38.02112         0.93723
C         55.12179        40.19972         0.63947
C         53.91553        39.48621         1.08157
C         55.07829        41.57581         0.31566
C         53.83245        42.30337         0.36248
C         54.98330        44.30234        -0.53954
C         53.79506        43.66408        -0.06716
C         54.93007        45.65970        -0.98943
C         53.69736        46.38161        -0.93878
C         54.83365        48.38440        -1.85367
C         53.63474        47.73922        -1.40049
C         54.77062        49.80923        -2.11406
C         53.60080        50.48644        -2.13184
C         57.80591        24.61106        -0.60735
C         56.55114        25.28826        -0.58917
C         57.75965        27.40698        -0.21391
C         56.55477        26.68701        -0.44854
C         57.73600        28.81085         0.05935
C         56.47296        29.55147         0.09579
C         57.73422        31.70110         0.50826
C         56.44319        30.92465         0.39362
C         57.58068        32.97733         1.31386
C         56.40013        33.76267         1.11895
C         57.52694        36.02492         1.47240
C         56.34958        35.19945         1.25434
C         57.55613        37.39263         1.04315
C         56.32641        38.06209         0.82674
C         57.55000        40.15330         0.28261
C         56.32461        39.47039         0.56703
C         57.51274        41.52307        -0.11922
C         56.26640        42.22824        -0.12728
C         57.41302        44.23617        -1.00551
C         56.21813        43.58948        -0.55545
C         57.34701        45.58713        -1.47105
C         56.10671        46.29942        -1.46886
C         57.27074        48.27129        -2.37716
C         56.05775        47.66728        -1.90364
C         58.99055        25.29604        -0.45208
C         60.20516        27.40393         0.02909
C         58.99741        26.69646        -0.21358
C         60.17099        28.74250         0.34734
C         58.94001        29.45884         0.40119
C         59.90156        31.28327         1.72805
C         58.89921        30.82110         0.90056
C         59.79039        32.53833         2.36072
C         58.65382        33.32003         2.16746
C         59.87415        36.31163         2.17679
C         58.67685        35.59153         2.16596
C         59.95183        37.53621         1.50898
C         58.78951        38.12214         0.97969
C         59.97311        40.16725         0.10930
C         58.78794        39.47431         0.44242
C         59.93492        41.46776        -0.37489
C         58.72007        42.18343        -0.49436
C         59.82047        44.22607        -1.43956
C         58.66340        43.54921        -0.97881
C         59.75740        45.52741        -1.90645
C         58.53135        46.23272        -1.92660
C         58.45505        47.58348        -2.39162
O         39.76669        52.98999         2.04291
O         38.25989        28.97035         1.64388
O         28.65793        38.11809         1.32920
O         33.41532        27.08337         1.02242
O         35.80598        50.68151         2.12873
O         47.73934        32.68492        -2.16212
O         42.32761        27.00510         1.51604
O         26.03648        40.30767         1.30352
O         50.99515        22.68549         1.29641
O         49.15178        30.14053        -2.25258
O         47.39595        49.03733         2.16296
O         33.42291        35.62409         1.71410
O         24.71471        29.25463        -1.83852
O         38.57287        24.97114        -1.78047
O         43.55737        48.33949        -0.83907
O         48.69440        46.57237         2.25277
O         50.53076        33.04898         1.33850
O         42.97252        29.01641        -1.56362
O         42.40573        45.30099         2.34012
O         24.73479        35.62383         1.79948
O         47.13211        43.67748         2.98771
O         43.49621        37.89917        -1.83029
O         39.71413        46.46043        -0.98809
O         53.35526        39.95558         2.37135
O         48.53083        40.16326        -1.01547
O         31.64992        25.98061        -1.90339
O         43.94794        34.48363         1.02666
O         39.40101        37.93170        -1.67835
O         58.57775        34.45809         2.98454
O         44.03901        21.58137        -1.77508
O         49.97009        44.20148         2.39605
O         33.64619        48.51673        -1.10432
O         51.27038        31.64144        -1.85273
O         44.96241        45.26584         2.65956
O         29.36072        43.96993         1.13109
O         54.66133        27.16001        -1.90069
O         28.59719        42.06955        -1.87120
O         42.06611        33.45355        -1.81743
O         34.83872        29.27579        -1.83062
O         29.73038        39.83933        -1.90646
O         47.89054        19.71024        -1.85955
H         47.02495        19.30013        -2.07234
O         44.96671        53.21643        -1.87706
H         44.88494        52.30808        -2.23631
O         36.68117        46.58298         2.47687
H         36.00404        47.17260         2.87188
O         27.97753        49.19761        -1.65832
H         27.76452        48.36816        -2.15451
O         29.39588        33.62782         1.78932
H         28.71668        34.12680         2.29010
O         58.02379        32.16363        -0.87053
H         58.10800        31.36312        -1.43204
O         27.28589        45.75964         1.53987
H         27.89661        45.12675         1.98123
O         39.17503        31.33320         2.11575
H         38.64927        30.62800         2.56258
O         39.26704        34.04323         1.85041
H         39.26253        33.12993         2.23962
O         23.83419        43.78919        -2.58624
H         23.52612        44.66502        -2.90404
O         45.61198        54.50636         1.48091
H         45.66032        55.42550         1.81556
O         30.10815        33.45729        -1.79439
H         30.81483        33.00252        -2.29879
O         51.94520        49.40584        -3.45975
H         52.68343        48.85798        -3.80222
O         32.25382        39.45229        -2.00526
H         31.46082        39.33995        -2.57941
O         27.01581        46.74077        -1.98709
H         26.98614        45.82784        -2.37984
O         41.92052        29.67267         1.91839
H         41.95938        28.74983         2.26881
O         38.03579        40.11138         2.19563
H         38.82154        40.63890         2.45356
O         46.48912        29.39932        -2.58673
H         47.36038        29.74832        -2.90248
O         39.05117        43.90955        -1.56948
H         39.21603        44.85243        -1.81893
O         26.70539        44.07495        -2.69776
H         25.84787        43.82010        -3.11517
H         22.03197        26.82419        -0.05608
H         21.94199        29.26110        -0.04190
H         21.97048        31.18864        -0.11216
H         21.97086        33.59647         0.31436
H         21.92821        35.50447         0.06562
H         21.93005        37.90084        -0.00437
H         21.85983        39.77568        -0.17546
H         21.81757        42.15363        -0.60368
H         21.76764        44.15357        -0.66533
H         21.92957        46.43188         0.19020
H         25.38302        23.48154        -0.13419
H         23.26141        24.72059        -0.17200
H         25.38143        49.66934         0.76082
H         23.25926        48.42310         0.71492
H         27.02920        22.56532         0.07894
H         26.95843        50.74078         0.67142
H         29.12839        21.35291         0.10818
H         29.07074        51.88507         1.02372
H         32.85586        19.18084        -0.02061
H         30.76385        20.39721        -0.10684
H         32.74775        54.20348         0.53128
H         30.65663        52.96744         0.49779
H         34.50670        18.23568         0.16435
H         34.43818        55.15406         0.18431
H         36.60941        17.04591         0.34914
H         36.53953        56.35250         0.04517
H         40.39766        14.97945         0.95991
H         38.25629        16.13975         0.66544
H         40.30689        58.46120        -0.52472
H         38.18505        57.27921        -0.18606
H         42.87699        15.01757         1.02637
H         42.78496        58.45776        -0.61437
H         45.00280        16.23238         0.81679
H         44.92455        57.24888        -0.43817
H         48.72071        18.44852         0.69912
H         46.60074        17.34642         1.19745
H         48.46961        54.93203        -1.44925
H         46.58412        56.27401        -0.76252
H         50.29422        19.20747        -0.62325
H         49.93703        53.79778        -2.04985
H         52.43932        20.36865        -0.63473
H         51.85041        52.39561        -2.62783
H         56.21339        22.56225        -0.62432
H         54.12707        21.33477        -0.35315
H         55.70862        50.36722        -2.24389
H         53.61372        51.57115        -2.30868
H         57.84282        23.52426        -0.75739
H         57.25372        49.30594        -2.74489
H         59.94741        24.75519        -0.47908
H         61.16256        26.86502        -0.00959
H         61.11234        29.27101         0.55016
H         60.76148        30.64502         1.97312
H         60.55199        32.86836         3.07784
H         60.74019        35.91676         2.72325
H         60.90436        38.08278         1.49732
H         60.94663        39.66698         0.20636
H         60.88407        41.94958        -0.64582
H         60.79216        43.71430        -1.43672
H         60.66970        46.02786        -2.26182
H         59.37080        48.06886        -2.75932
