         314
 CSIRO Nanostructure Databank - Neutral Graphene Oxide Data Set
C         30.38402        57.12645        -0.29861
C         30.44571        58.49753        -0.59512
C         29.34200        59.20785        -1.09437
C         30.47284        61.35810        -0.80205
C         29.37904        60.61614        -1.21319
C         32.75046        52.86404         0.22475
C         32.44374        54.08076         0.79700
C         31.46210        55.03292         0.33897
C         32.43270        57.35406         0.97903
C         31.42366        56.44173         0.40665
C         32.68923        58.59345         0.48511
C         31.78150        59.21727        -0.53574
C         32.73164        61.44893         0.15351
C         31.67356        60.72387        -0.33400
C         34.96926        48.37732         0.63434
C         34.83371        49.74836         0.88797
C         33.82011        50.69744         0.53890
C         35.26112        52.82620         0.45987
C         33.97713        52.09830         0.53352
C         35.33816        54.27600         0.63989
C         34.38535        54.99151         1.39167
C         35.38755        57.15332         0.86586
C         34.39886        56.38253         1.47988
C         35.23877        58.59463         0.54994
C         33.95251        59.33523         0.83779
C         35.27794        61.51797         0.43707
C         33.98632        60.81133         0.61429
C         37.56221        44.19178         0.38371
C         37.51784        45.56492         0.19972
C         36.32815        46.29951         0.49123
C         37.40336        48.45080         0.02064
C         36.25388        47.71344         0.48311
C         37.23464        49.79019        -0.36510
C         36.55591        50.78878         0.32629
C         37.60447        52.88469        -0.59646
C         36.42941        52.16719        -0.00403
C         37.62980        54.37633        -0.38290
C         36.46998        55.04226         0.24517
C         37.75860        57.20727         0.16920
C         36.51739        56.45184         0.37472
C         37.78438        58.65468         0.28605
C         36.49576        59.37548         0.24799
C         37.75646        61.52661         0.33831
C         36.49067        60.85861         0.36497
C         40.38108        40.09198        -0.63962
C         40.14613        41.38066        -0.06008
C         38.91453        42.01617        -0.06338
C         40.06010        44.15552        -0.00899
C         38.84486        43.41331         0.51442
C         40.02637        45.59648        -0.36170
C         38.70166        46.30172        -0.34352
C         40.01215        48.53906        -0.41015
C         38.67403        47.79511        -0.45468
C         40.07224        49.98055        -0.60926
C         39.02535        50.79444        -1.04728
C         40.13779        52.88235        -0.60770
C         38.94419        52.20303        -0.77332
C         40.18852        54.24521        -0.02629
C         38.92360        55.04008        -0.01827
C         40.24210        57.19976         0.40886
C         38.94460        56.51404         0.07778
C         40.24471        58.68928         0.15076
C         38.98080        59.37525         0.25601
C         40.23420        61.51106         0.27775
C         38.98089        60.83384         0.27263
C         43.71641        36.78085        -2.11990
C         43.30920        37.72214        -1.14696
C         41.98148        38.27299        -1.18783
C         42.56612        39.96790         0.52200
C         41.62051        39.43779        -0.49545
C         42.50623        41.42880         0.79759
C         41.32512        42.10771         0.45001
C         42.51243        44.25245         0.57832
C         41.33400        43.51757         0.39260
C         42.56929        45.69548         0.22547
C         41.30631        46.38855        -0.25977
C         42.47536        48.57383         0.20789
C         41.20539        47.86504        -0.15350
C         42.56873        50.04926        -0.08988
C         41.37066        50.65513        -0.70812
C         42.69659        52.87977        -0.78882
C         41.38646        52.16639        -0.86041
C         42.69289        54.35846        -0.61677
C         41.52509        54.97032         0.13323
C         42.70516        57.18918        -0.36487
C         41.41983        56.45693        -0.17750
C         42.70810        58.68362        -0.25299
C         41.43165        59.38719         0.01588
C         42.71969        61.50674         0.33050
C         41.46863        60.83235         0.17713
C         46.87563        35.40259        -3.57742
C         45.51763        35.61688        -3.35025
C         46.06558        37.05002        -1.42963
C         45.08348        36.46232        -2.29210
C         45.66024        37.86542        -0.32900
C         44.27585        38.20036        -0.21213
C         44.92758        39.93546         1.53231
C         43.86310        39.23749         0.73904
C         44.92191        41.42580         1.38641
C         43.65696        42.16575         1.15214
C         44.89623        44.35928         1.22571
C         43.68931        43.58157         1.00304
C         44.92180        45.74433         1.07891
C         43.75835        46.48134         0.66022
C         44.96708        48.66279         0.62554
C         43.76560        47.86857         0.47932
C         45.01556        50.02849         0.30109
C         43.86881        50.75904        -0.16481
C         45.14850        52.88355        -0.35289
C         43.92300        52.12272        -0.46952
C         45.18154        54.29527        -0.38937
C         43.97869        55.05689        -0.38957
C         45.18647        57.11147         0.22569
C         43.96806        56.43208        -0.24962
C         45.18898        58.60990         0.41631
C         43.99081        59.40383         0.00163
C         45.22505        61.45629         0.52394
C         43.97160        60.84689         0.35277
C         47.83983        36.01957        -2.77918
C         48.41453        37.49647        -0.87335
C         47.45268        36.84926        -1.69444
C         48.03912        38.25316         0.24229
C         46.65886        38.36226         0.57948
C         47.40941        40.04832         2.30131
C         46.26674        39.27704         1.68633
C         47.42587        41.52445         2.09011
C         46.19388        42.17874         1.52882
C         47.46426        44.35874         1.63514
C         46.12231        43.66170         1.67729
C         47.47773        45.77406         1.25518
C         46.18332        46.49136         1.34307
C         47.54687        48.57130         0.78576
C         46.21571        47.98323         1.09594
C         47.59434        50.02458         0.69872
C         46.25848        50.80675         0.47000
C         47.58936        52.85841        -0.02519
C         46.34585        52.17357        -0.04070
C         47.68752        54.25064        -0.14180
C         46.47965        55.05516        -0.51482
C         47.65976        57.08686         0.41943
C         46.46885        56.42685         0.11220
C         47.67460        58.54648         0.59656
C         46.48242        59.29840         0.47820
C         47.72372        61.38323         0.55910
C         46.46854        60.72534         0.49945
C         49.10941        38.61727         1.22984
C         49.87221        39.87711         1.80848
C         48.68712        39.27032         2.49865
C         49.98370        41.42643         1.85081
C         48.69678        42.20873         1.77727
C         49.92663        44.25437         1.16449
C         48.70000        43.55069         1.49010
C         49.91271        45.63289         0.97422
C         48.67643        46.39821         0.96173
C         50.00775        48.48878         0.45576
C         48.72800        47.83371         0.70738
C         50.01735        49.89957         0.20515
C         48.82838        50.64819         0.25342
C         50.15950        52.80265        -0.12887
C         48.81387        52.05038        -0.10970
C         50.14489        54.22602         0.17658
C         48.91810        54.94950         0.08970
C         50.13432        56.97700         0.83409
C         48.89027        56.34068         0.40472
C         50.16265        58.51299         0.95484
C         48.90671        59.24998         0.70019
C         50.22719        61.41020         0.78912
C         48.91897        60.66161         0.64020
C         51.07012        42.05929         1.03197
C         52.32638        44.11351         0.55513
C         51.13317        43.45661         0.93637
C         52.49254        45.52794         0.79607
C         51.18933        46.37120         0.96447
C         52.50652        48.42303         0.32013
C         51.24829        47.78831         0.54590
C         52.48445        49.83508         0.05284
C         51.27808        50.58933         0.09391
C         52.57597        52.68300         0.36489
C         51.35557        52.00629         0.12501
C         52.60358        54.11657         0.52003
C         51.38223        54.86186         0.47324
C         52.63920        56.96207         0.65724
C         51.41315        56.27054         0.65732
C         52.64267        58.41108         0.58027
C         51.45894        59.16251         0.69298
C         52.64031        61.22352         0.16323
C         51.46723        60.58532         0.50215
C         53.71565        46.27019         0.49716
C         55.07778        48.23616         0.78474
C         53.76778        47.65461         0.48083
C         55.51670        49.47690         0.35421
C         53.66396        50.61029        -0.14524
C         55.05525        52.48400         0.86201
C         53.78251        51.94674         0.23005
C         55.09314        54.02656         0.85529
C         53.83808        54.80016         0.66716
C         55.12258        56.92836         0.43700
C         53.86794        56.21872         0.61348
C         55.08670        58.36001         0.23200
C         53.89286        59.07673         0.29631
C         55.01226        61.15584        -0.44653
C         53.87130        60.50811         0.02437
C         56.54073        50.37492         0.74252
C         57.53187        52.55343         0.31011
C         56.39517        51.79351         0.52768
C         57.57230        53.98761         0.19469
C         56.40056        54.78188         0.65346
C         57.58731        56.91655         0.01840
C         56.32862        56.22442         0.35519
C         57.52360        58.30166        -0.44810
C         56.38520        59.12632         0.09725
C         57.32908        61.02289        -1.24175
C         56.24485        60.46232        -0.59317
C         58.64360        54.60046        -0.40721
C         59.75473        56.70394        -1.32281
C         58.79449        56.06227        -0.42846
C         59.70263        58.05897        -1.59062
C         58.57727        58.87021        -1.13905
C         59.55495        60.82062        -2.27616
C         58.51475        60.26834        -1.54005
C         60.73110        58.69494        -2.37770
C         60.66539        60.03023        -2.68224
O         37.88058        50.18038        -1.54230
O         47.15262        40.94017         3.42391
O         42.31416        45.94648        -1.22082
O         50.07449        57.67078         2.13967
O         45.84030        41.71593         0.19729
O         43.51652        59.22456        -1.37164
O         33.23988        54.40070         1.92378
O         35.94849        50.36435         1.51911
O         33.24489        56.93566         2.05415
O         33.89750        60.18565         2.01032
O         45.21829        39.10943         2.70166
O         46.10908        47.44076         2.45904
O         58.71062        56.64946         0.92108
O         41.48171        51.27093        -2.02438
O         46.88173        50.68874         1.79382
O         38.45053        46.95855        -1.63570
O         37.36368        53.83047        -1.70461
O         46.72882        44.13447         2.90632
O         54.75878        49.99801        -0.71924
O         41.83076        56.78790        -1.51126
O         51.98289        46.01001         2.11285
O         42.70065        39.00525         1.61904
O         44.94090        57.73544         1.56336
O         35.64080        58.86171        -0.83898
O         42.23970        49.59421         1.26277
O         49.50488        52.37833        -1.37039
O         39.42019        54.36862         1.22495
O         55.89048        54.47661         2.00111
O         42.65558        53.81606        -1.95513
O         40.03816        44.56194        -1.40456
O         40.40929        57.06710         1.86742
H         39.60749        57.43501         2.29644
O         32.38721        59.03190        -1.85335
H         31.79742        59.45558        -2.51179
O         48.79062        38.60437         3.73980
H         48.24525        39.09732         4.38776
O         50.21591        62.60338        -0.00091
H         50.09889        62.35122        -0.93943
O         50.43424        41.61953         3.24717
H         49.64092        41.56840         3.82410
O         54.85202        52.12534         2.26536
H         55.37399        52.77030         2.79774
O         56.78060        59.43683         1.48420
H         57.69718        59.78526         1.45959
O         41.93775        54.82262         1.50897
H         41.20299        55.17091         2.06877
O         39.06603        43.31070         1.96484
H         38.41108        42.67774         2.32723
O         46.62498        55.32297        -1.97251
H         46.63795        54.45502        -2.43078
H         29.48403        56.56164        -0.59047
H         28.39986        58.67630        -1.29471
H         30.41613        62.45668        -0.78975
H         28.47790        61.13859        -1.56454
H         32.07389        52.43691        -0.53326
H         30.69779        54.59477        -0.32681
H         32.66994        62.54963         0.17160
H         34.07204        47.78851         0.39019
H         32.82047        50.30823         0.28910
H         35.25991        62.61929         0.43358
H         36.65113        43.69597         0.75971
H         35.43507        45.72887         0.78824
H         37.76825        62.62668         0.37404
H         39.58995        39.62779        -1.24764
H         38.02399        41.52265        -0.47944
H         40.23670        62.60696         0.38126
H         42.97517        36.37301        -2.82308
H         41.27338        37.84913        -1.91635
H         42.69834        62.59621         0.48952
H         47.19170        34.75347        -4.40604
H         44.76787        35.14703        -4.00267
H         45.27517        62.54539         0.67582
H         48.90876        35.86312        -2.98248
H         49.48269        37.36157        -1.09830
H         47.76488        62.48224         0.56679
H         49.80163        37.76611         1.36143
H         50.82502        39.47952         2.20235
H         50.30058        61.74895         1.86141
H         51.97606        41.47104         0.81941
H         53.16790        43.53435         0.14804
H         52.63627        62.31302         0.01169
H         54.65912        45.70340         0.49281
H         55.70628        47.66076         1.48139
H         54.94139        62.20180        -0.78201
H         57.48691        49.99997         1.16440
H         58.47844        52.02232         0.12316
H         57.25347        62.04980        -1.63226
H         59.44525        53.98632        -0.84530
H         60.52737        56.08130        -1.79897
H         59.50901        61.87872        -2.57131
H         61.58717        58.08921        -2.70801
H         61.46832        60.50103        -3.26667
