         490
 CSIRO Nanostructure Databank - Neutral Graphene Oxide Data Set
C         37.53996        50.06316         0.34782
C         36.34594        50.74135         0.17017
C         37.52285        52.85219         0.20893
C         36.33960        52.14730         0.09675
C         40.08026        48.60981         0.58259
C         40.02177        50.05562         0.65498
C         38.77130        50.75584         0.45582
C         39.99841        52.91187         0.52128
C         38.76735        52.18530         0.39202
C         40.03057        54.35296         0.44990
C         42.47182        48.56595         1.16852
C         41.22909        47.90720         0.74876
C         42.46376        50.09215         1.14703
C         41.20860        50.78259         0.80801
C         42.45973        52.92015         0.85739
C         41.22754        52.21662         0.72681
C         42.44351        54.41080         1.10493
C         41.15758        55.06195         0.68784
C         44.98492        45.75434         1.19037
C         43.81860        46.45230         1.17501
C         44.94441        48.62307         0.88029
C         43.77626        47.88198         1.00424
C         44.94638        50.07528         0.87067
C         43.74072        50.79364         0.93472
C         44.94694        52.91614         0.70999
C         43.71609        52.22478         0.84357
C         44.99225        54.41921         0.86363
C         43.67999        55.09399         0.56116
C         44.87304        57.06393        -0.25250
C         43.66997        56.35386         0.02835
C         47.61716        44.37539         1.33807
C         47.54849        45.74681         1.03601
C         46.24130        46.39223         0.78811
C         47.49639        48.64713         0.76848
C         46.21720        47.92041         0.63835
C         47.44162        50.09274         0.67972
C         46.18585        50.77866         0.69028
C         47.38548        52.90660         0.27634
C         46.16801        52.20510         0.59158
C         47.36479        54.34273         0.06120
C         46.18263        55.06089         0.19874
C         47.37027        57.17947        -0.31256
C         46.12396        56.45954        -0.13220
C         47.39912        58.57559        -0.66390
C         50.04561        44.42315         1.17146
C         48.83829        43.73025         1.41568
C         50.00698        45.82296         0.94644
C         48.74406        46.49456         0.90532
C         49.97357        48.67178         0.88793
C         48.69340        47.93992         0.81746
C         49.92835        50.15330         0.63921
C         48.62948        50.82272         0.44133
C         49.75454        52.88350        -0.57644
C         48.58937        52.20199         0.12848
C         49.83220        54.36316        -0.29135
C         48.60414        55.04626        -0.18283
C         49.85166        57.18840        -0.10909
C         48.57732        56.47211        -0.21554
C         49.83127        58.71511        -0.32218
C         48.56029        59.28312        -0.76651
C         52.49905        41.58425         0.98958
C         51.34115        42.29668         1.23895
C         52.50232        44.39267         0.77553
C         51.30522        43.70253         1.08547
C         52.48285        45.83913         0.65126
C         51.24758        46.54209         0.73110
C         52.46081        48.66738         0.46927
C         51.25811        47.95905         0.66201
C         52.49540        50.18888         0.58372
C         51.17318        50.77742         0.09701
C         52.34911        52.95051        -0.51515
C         51.09465        52.16631        -0.43879
C         52.31775        54.31356        -0.57580
C         51.06812        55.05508        -0.42002
C         52.33275        57.20592        -0.41651
C         51.11026        56.46598        -0.33720
C         52.31072        58.64814        -0.37779
C         51.13605        59.37971        -0.53571
C         52.37091        61.48107        -0.78238
C         51.18648        60.79115        -0.78025
C         55.00511        40.05535         0.54161
C         54.85175        41.45977         0.15492
C         53.67424        42.24239         0.58216
C         54.94726        44.35648         0.28594
C         53.70398        43.65687         0.53285
C         55.00874        45.84285         0.57429
C         53.68246        46.55731         0.44746
C         54.94897        48.69129         0.12766
C         53.68140        47.96141         0.32242
C         54.90084        50.14414        -0.08719
C         53.70216        50.81237        -0.08994
C         54.87209        52.97776        -0.66429
C         53.60961        52.15775        -0.79327
C         54.83547        54.32878        -0.82258
C         53.53628        55.07671        -1.05224
C         54.78960        57.24740        -0.63000
C         53.57106        56.53478        -0.61889
C         54.84908        58.64240        -0.41361
C         53.58549        59.38165        -0.05241
C         54.79516        61.54282        -0.29839
C         53.60827        60.84284        -0.45093
C         54.85280        62.98098        -0.31165
C         57.41045        40.08955         0.02182
C         56.19015        39.41023         0.37633
C         57.42177        41.49256        -0.08218
C         56.14574        42.22735        -0.16013
C         57.39813        44.40216        -0.07289
C         56.12932        43.69090         0.02416
C         57.40921        45.80271        -0.13001
C         56.08178        46.51243        -0.27693
C         57.45104        48.72929         0.01268
C         56.12591        48.00693        -0.04605
C         57.37410        50.14704        -0.50215
C         56.14613        50.84017        -0.44570
C         57.36014        52.94356        -0.77905
C         56.13401        52.24653        -0.64073
C         57.38057        54.39026        -0.85085
C         56.08779        55.09717        -1.18242
C         57.31639        57.28681        -1.02626
C         56.09598        56.48884        -0.54473
C         57.31164        58.70899        -0.52261
C         56.07460        59.35611        -0.35315
C         57.30011        61.56892        -0.19808
C         56.04551        60.79644         0.12462
C         57.29153        62.94150        -0.16510
C         56.02896        63.65126        -0.14031
C         59.87110        37.23416         0.02763
C         58.67495        37.93704         0.03643
C         59.88198        40.03521        -0.25229
C         58.65414        39.34508        -0.05670
C         59.89333        41.49050        -0.27450
C         58.64456        42.22370        -0.13331
C         59.84772        44.38366        -0.25610
C         58.62596        43.65350        -0.13727
C         59.84158        45.77033        -0.38848
C         58.62573        46.52264        -0.31969
C         59.85291        48.63050        -0.78225
C         58.65115        47.93983        -0.47380
C         59.80808        50.07575        -1.23816
C         58.57083        50.83171        -0.81919
C         59.83257        53.02480        -1.18253
C         58.57256        52.22490        -0.91189
C         59.79667        54.26872        -0.26730
C         58.56432        55.09204        -0.66900
C         59.76589        57.24396        -0.52488
C         58.58474        56.52823        -0.67635
C         59.77533        58.68444        -0.48537
C         58.55211        59.38555        -0.46268
C         59.79612        61.54250        -0.05850
C         58.56566        60.87890        -0.62239
C         59.76745        62.90646         0.14466
C         58.56532        63.66612        -0.13567
C         59.91828        65.71068        -0.15784
C         58.66561        65.02878        -0.31773
C         62.39770        35.86724         0.65340
C         62.39381        37.11592        -0.18878
C         61.09989        37.90395        -0.09381
C         62.37695        39.97721        -0.58530
C         61.09614        39.29671        -0.29650
C         62.37315        41.49532        -0.60848
C         61.09410        42.17935        -0.36216
C         62.39133        44.31110        -0.48896
C         61.13434        43.63886        -0.00895
C         62.32705        45.69592        -1.00188
C         61.05950        46.47267        -0.85131
C         62.33532        48.63980        -1.05317
C         61.07946        47.95067        -0.90768
C         62.35333        50.10546        -1.08049
C         61.10100        50.84148        -1.03623
C         62.33921        52.97925        -1.08136
C         61.11150        52.22800        -1.04267
C         62.35450        54.35883        -0.85660
C         61.15536        55.06800        -0.23452
C         62.30757        57.29859        -0.77922
C         61.03825        56.51101        -0.71547
C         62.27846        58.71974        -0.36927
C         61.03007        59.40495        -0.31196
C         62.24565        61.48002         0.30614
C         61.01642        60.78842         0.01428
C         62.25080        62.86932         0.51822
C         60.95866        63.62534         0.71728
C         62.28636        65.81099         0.72592
C         61.03286        65.07701         0.30143
C         62.46384        67.17701         0.10519
C         64.84341        35.87442         0.71625
C         63.55797        35.26667         0.99125
C         64.87806        37.26298         0.38847
C         63.64037        37.95548         0.05429
C         64.94377        40.05812        -0.45934
C         63.64635        39.28763        -0.25482
C         64.82465        41.53546        -0.14017
C         63.64253        42.20730        -0.27857
C         64.82677        44.47207        -0.05053
C         63.58103        43.66309        -0.31118
C         64.84524        45.80525        -0.72354
C         63.61822        46.42411        -1.32804
C         64.80143        48.59449        -1.18729
C         63.55113        47.92286        -1.10166
C         64.77565        50.02966        -1.47118
C         63.54469        50.79266        -1.27979
C         64.89696        52.99741        -1.23090
C         63.58255        52.28400        -1.57856
C         64.84819        54.42505        -0.93150
C         63.59488        55.07258        -0.82549
C         64.68302        57.20381         0.06711
C         63.65282        56.59359        -0.84537
C         64.68360        58.56097         0.29896
C         63.47236        59.34681         0.06339
C         64.68502        61.39257         0.75833
C         63.47488        60.73420         0.37300
C         64.72500        62.81277         0.78801
C         63.49647        63.57594         0.61669
C         64.84855        65.66817         0.30465
C         63.53623        64.96816         0.56081
C         64.83107        67.12541         0.79643
C         63.64066        67.81018         0.16459
C         67.30712        32.97668         0.79516
C         66.09250        33.70011         0.83046
C         67.29503        35.80937         0.43071
C         66.04350        35.09244         0.73146
C         67.34310        37.26096         0.86651
C         66.08976        38.00157         0.44320
C         67.34384        40.13140         0.30707
C         66.14184        39.39022         0.19260
C         67.36453        41.53529         0.13346
C         66.06317        42.27854         0.31664
C         67.29642        44.35654        -0.41316
C         66.10840        43.69970        -0.18166
C         67.28544        45.78643        -0.65926
C         66.04282        46.49197        -0.81775
C         67.27923        48.64283        -0.93592
C         66.03933        47.91716        -1.09329
C         67.27470        50.05516        -0.93391
C         66.10587        50.78270        -1.41178
C         67.39307        52.83649        -1.36549
C         66.07407        52.26343        -1.30509
C         67.30938        54.86265        -0.82068
C         66.00200        55.18901        -0.49354
C         67.07638        57.08409         0.81357
C         65.80211        56.31219         0.51559
C         67.08088        58.44587         1.06805
C         65.86391        59.22398         0.84115
C         67.06793        61.27233         1.56096
C         65.86158        60.60244         1.02888
C         67.11530        62.78989         1.53861
C         65.94224        63.51894         1.02254
C         67.26858        65.59114         1.01893
C         66.03877        64.90296         0.83138
C         67.32035        67.03432         0.80233
C         66.17840        67.78545         0.56811
C         67.47425        69.76197        -0.12255
C         66.28039        69.14781         0.11563
C         69.86562        31.47302         0.85584
C         69.82201        32.88402         0.76161
C         68.55352        33.58385         0.65166
C         69.86589        35.75041         0.56923
C         68.59720        35.02937         0.38443
C         69.88076        37.25534         0.72423
C         68.58739        37.96881         0.30386
C         69.88901        40.10987         0.31649
C         68.61196        39.44194         0.77297
C         69.89713        41.61404         0.38298
C         68.56884        42.25946         0.02788
C         69.79019        44.33269        -0.50829
C         68.57315        43.64907        -0.28180
C         69.75361        45.74894        -0.92039
C         68.48954        46.50538        -0.74948
C         69.80667        48.56071        -0.31314
C         68.49715        47.91007        -0.74023
C         69.76604        50.08116        -0.30219
C         68.45651        50.81599        -0.48700
C         69.72079        53.00669        -0.49870
C         68.52698        52.25200        -0.83685
C         69.66364        54.39088        -0.07052
C         68.45805        55.14749        -0.02708
C         69.59507        56.91171         1.40457
C         68.31118        56.26598         0.90734
C         69.51951        58.35588         1.80064
C         68.30385        59.14162         1.48411
C         69.58176        61.26876         1.81994
C         68.34356        60.52538         1.62146
C         69.61433        62.71203         1.76480
C         68.42355        63.47405         1.54632
C         69.70905        65.65030         1.63435
C         68.44927        64.86593         1.34426
C         69.86478        66.82918         0.66557
C         68.63197        67.70782         0.79807
C         70.07736        69.54688        -0.29424
C         68.72730        69.13385         0.30295
C         70.19024        71.02856        -0.52463
C         72.28036        31.50387         0.86482
C         71.07391        30.79131         0.90824
C         72.26608        32.89189         0.78390
C         71.05409        33.61157         0.74070
C         72.28679        35.86465         0.80910
C         71.05109        35.07354         0.71048
C         72.32081        37.17573         0.49528
C         71.07499        37.87379        -0.04201
C         72.23120        40.11232        -0.32614
C         71.04583        39.40339         0.07708
C         72.25126        41.47965        -0.48625
C         71.09412        42.26714        -0.25784
C         72.27478        44.42658        -0.66092
C         71.05252        43.65844        -0.49428
C         72.28880        45.76353        -0.88033
C         71.04007        46.50088        -1.14744
C         72.05707        48.77654        -1.39190
C         71.00867        47.98880        -1.03076
C         72.06078        50.20226        -1.18497
C         70.98270        50.85309        -0.63881
C         72.13774        52.97622        -0.06742
C         70.94142        52.29379        -0.41028
C         72.10528        54.28766         0.34068
C         70.87510        55.00675         0.43815
C         72.05855        57.10440         1.11086
C         70.86205        56.32567         0.96266
C         72.06661        58.37177         1.60434
C         70.82829        59.09226         1.97706
C         72.03337        61.26712         2.00084
C         70.80734        60.56872         1.91469
C         72.07252        62.64053         1.96699
C         70.88059        63.39994         1.82912
C         72.16751        65.53631         1.74962
C         70.96101        64.81653         1.70449
C         72.23470        66.90190         1.46530
C         71.14161        67.61613         0.91949
C         72.35655        69.77576         0.80732
C         71.22251        68.95756         0.51262
C         72.40078        71.10859         0.48280
C         71.29129        71.73770        -0.17807
O         67.51857        54.08839        -1.97765
O         68.77700        68.82392         1.72798
O         68.80239        56.02381         2.26328
O         61.59873        55.16455         1.10820
O         70.08381        58.57772         3.13696
O         67.87418        35.45859        -0.84272
O         61.58053        56.91966        -2.01777
O         50.06839        49.64163         2.01521
O         55.26134        41.74622        -1.22263
O         62.39725        40.71296        -1.85298
O         65.53923        50.34926        -2.70551
O         70.29144        45.96683        -2.29517
O         70.97937        37.57594        -1.41104
O         61.42310        45.82294        -2.17060
O         49.82666        58.12589         1.02349
O         42.38014        49.33544         2.41281
O         51.12277        50.97214        -1.35293
O         66.82196        62.05381         2.78456
O         69.00783        50.54412         0.86248
O         46.17728        47.03337        -0.53111
O         69.96981        48.13619         1.08149
H         69.49634        48.80839         1.62654
O         56.26997        56.23415         0.87460
H         56.23680        57.09099         1.35049
O         69.90048        66.29607        -0.67582
H         69.97603        67.06731        -1.29273
O         59.67022        49.97537        -2.70949
H         60.45728        49.49454        -3.04597
O         68.45197        37.99407        -1.11944
H         69.34830        37.78278        -1.53036
O         62.14177        66.00776         2.17942
H         63.00256        66.39656         2.49255
O         42.52105        54.57231         2.58738
H         41.80672        54.02235         2.97591
O         70.11284        37.49695         2.13927
H         69.36955        37.06472         2.62458
O         64.17480        56.89851        -2.18678
H         63.41031        56.80112        -2.80191
O         63.84204        46.28397        -2.77157
H         62.94585        46.22469        -3.18229
O         59.79015        53.49182        -2.55554
H         59.89537        52.71221        -3.14142
O         59.55696        53.79306         1.06160
H         60.28671        54.21131         1.60904
O         65.22011        40.00777        -1.89776
H         65.54071        39.10607        -2.11392
O         55.67257        46.33008        -1.66428
H         56.37460        46.69315        -2.24372
O         62.49425        36.66618        -1.57982
H         62.49672        37.46518        -2.14950
O         56.02832        55.22211        -2.63681
H         56.00550        54.31717        -3.01340
O         70.05024        41.94022         1.83083
H         70.23482        42.90293         1.89029
O         63.53767        52.36046        -3.05123
H         64.28489        51.80215        -3.37729
O         64.63768        67.08230         2.24488
H         64.86883        67.96187         2.61103
O         58.64032        61.08181        -2.08554
H         58.64297        62.04958        -2.24711
O         65.39124        55.66604         1.76154
H         65.16005        56.36341         2.41050
O         65.90847        42.36839         1.79938
H         66.80730        42.44886         2.18720
O         45.23363        54.62823         2.30798
H         44.34963        54.57835         2.75198
O         69.52887        66.23274         2.95749
H         69.40588        65.50161         3.59826
O         52.62510        50.51021         1.99567
H         51.81817        50.15457         2.44490
O         60.76237        63.63581         2.17896
H         61.26899        64.41276         2.52802
O         53.34290        55.12582        -2.50843
H         53.31548        54.19376        -2.82170
O         57.72782        48.87936         1.45753
H         56.98739        49.38999         1.85034
O         57.31768        57.46445        -2.46358
H         57.08046        56.60328        -2.88610
O         56.00874        60.72283         1.59084
H         55.15475        60.27644         1.82791
O         70.10002        68.90630        -1.62661
H         70.91249        69.21181        -2.08392
O         49.39948        52.81431        -1.99539
H         49.67281        51.92168        -2.30885
O         65.00011        65.74763        -1.15070
H         65.05956        64.83252        -1.49713
O         68.55908        39.56765         2.23051
H         69.45784        39.33881         2.56657
O         53.54769        51.85322        -2.23713
H         52.72624        51.31812        -2.36294
O         55.41808        45.98543         1.96522
H         54.69673        45.64074         2.53176
O         67.39524        37.22194         2.31760
H         67.51208        38.16323         2.61751
O         61.27803        43.66195         1.47157
H         60.42668        43.35817         1.85396
O         64.72968        44.78914         1.39730
H         64.93534        43.94482         1.87551
O         53.59217        59.39817         1.44365
H         52.70003        59.68982         1.73427
H         37.51594        48.96755         0.41467
H         35.40279        50.18355         0.09070
H         37.48690        53.94821         0.15822
H         35.39127        52.68408        -0.04389
H         39.17653        48.06105         0.28531
H         39.10922        54.89981         0.20760
H         41.24335        46.82991         0.52908
H         41.10569        56.15950         0.68808
H         44.98128        44.70339         1.50948
H         42.88509        45.93595         1.43979
H         44.78735        58.11583        -0.55535
H         42.72209        56.88353        -0.14202
H         46.69821        43.79110         1.47625
H         46.45901        59.06634        -0.95265
H         48.84246        42.65408         1.62653
H         48.54500        60.29031        -1.20625
H         52.47440        40.48922         1.06279
H         50.43794        41.73875         1.51378
H         52.36441        62.54870        -1.04032
H         50.25284        61.32842        -0.99466
H         54.15291        39.51124         0.97112
H         53.92185        63.55613        -0.41341
H         56.23438        38.34445         0.63571
H         56.02690        64.74832        -0.08343
H         59.84084        36.13868         0.09330
H         57.74024        37.36838         0.11793
H         59.92921        66.78872        -0.37226
H         57.78506        65.62634        -0.58937
H         61.44548        35.38302         0.91119
H         61.60191        67.68676        -0.34843
H         63.53784        34.30434         1.52376
H         63.72967        68.81829        -0.26418
H         67.24609        31.88956         0.94471
H         65.16368        33.13151         0.98192
H         67.49422        70.73966        -0.62473
H         65.36328        69.68821        -0.15505
H         68.93006        30.89739         0.86954
H         69.36259        71.52543        -1.05151
H         73.23797        30.96580         0.89451
H         71.08353        29.69458         0.97319
H         73.22244        33.43003         0.74593
H         73.21316        35.36193         1.12459
H         73.27855        37.71879         0.51463
H         73.13189        39.53239        -0.57112
H         73.16218        41.95594        -0.87556
H         73.23111        43.91014        -0.49721
H         73.23988        46.31546        -0.86613
H         72.94284        48.32453        -1.86215
H         72.94711        50.77016        -1.49947
H         73.08734        52.42331        -0.05442
H         73.03706        54.75573         0.68314
H         73.01731        56.66759         0.79953
H         73.02708        58.90128         1.65441
H         72.97428        60.71648         2.12155
H         73.04373        63.14418         2.04627
H         73.10898        65.02780         2.00133
H         73.20914        67.39896         1.57435
H         73.20740        69.33460         1.34512
H         73.28013        71.71224         0.74405
H         71.34529        72.81421        -0.39556
