         294
 CSIRO Nanostructure Databank - Neutral Graphene Oxide Data Set
C          1.51199         1.92612         0.84370
C          1.83046         3.36180         1.02974
C          2.48081         1.08186         0.43154
C          1.58859         4.28750         0.07437
C          0.83165         6.55173        -0.41111
C          0.93818         7.73843        -1.01365
C          1.98094         5.74458         0.18115
C          2.25795         8.42052        -1.27149
C          1.07058        10.63830        -0.63773
C          1.03680        12.02770        -0.47752
C          2.23040         9.90913        -0.90456
C          2.25295        12.85295        -0.40882
C          1.01299        15.13266        -0.24341
C          1.05284        16.37677         0.26111
C          2.21077        14.36416        -0.76191
C          2.30866        17.06327         0.66613
C          2.39456        18.53374         0.75354
C          3.79545         1.64982         0.13223
C          3.83482         2.94359        -0.61047
C          4.98637         1.04263         0.41622
C          5.01467         3.90722        -0.36457
C          3.35664         6.11045        -0.60496
C          3.40047         7.65786        -0.55440
C          4.69569         5.43527         0.03794
C          4.65248         8.42017        -0.26377
C          3.52114        10.64963        -1.10758
C          3.54269        12.12458        -0.67129
C          4.70259         9.91544        -0.46362
C          4.77279        12.90181        -1.16623
C          3.54373        15.06611        -0.41407
C          3.60720        16.32538         0.42231
C          4.84088        14.34243        -0.59918
C          4.86180        17.10184         0.40984
C          3.58499        19.17865         0.80048
C          4.86834        18.47968         0.72066
C          6.22710         1.79307         0.37575
C          6.03580         3.28488         0.63646
C          7.44294         1.18022         0.48274
C          7.33189         4.10946         0.56631
C          5.99688         6.24629        -0.32511
C          5.96294         7.72324         0.12411
C          7.29662         5.56359         0.21694
C          7.22573         8.37860        -0.46834
C          5.99309        10.63474        -0.57754
C          6.05184        12.11902        -0.87741
C          7.25333         9.84855        -0.74446
C          7.25297        12.73562        -0.22313
C          5.97068        14.89351         0.30103
C          6.15057        16.41732         0.04046
C          7.31836        14.15768         0.26757
C          7.40225        17.03786         0.65717
C          6.07645        19.17047         0.90278
C          7.35182        18.43813         1.22268
C          8.68811         1.92437         0.49794
C          8.57011         3.36666         0.03911
C          9.88786         1.31463         0.68856
C          9.86923         4.16745         0.32676
C          8.59978         6.25087        -0.12597
C          8.55345         7.76936        -0.00038
C          9.78890         5.58638        -0.19370
C          9.80299         8.41092        -0.64374
C          8.47686        10.56049        -0.31707
C          8.25608        11.76230         0.27314
C          9.82233         9.93766        -0.46829
C         10.11840        12.92907         0.37960
C          8.63500        14.92237         0.37533
C          8.59673        16.41086         0.47894
C          9.93885        14.25248         0.06287
C          9.81782        17.25673         0.11142
C          8.62907        19.22730         1.04953
C          9.85221        18.62475         0.77859
C         11.21335         2.04277         0.65520
C         11.08553         3.35347        -0.17750
C         12.37244         1.17804         0.13079
C         12.39703         4.11799        -0.18630
C         11.09666         6.25457        -0.63660
C         11.09574         7.70784        -0.10016
C         12.38972         5.51117        -0.31418
C         12.37808         8.49564        -0.34115
C         11.13242        10.67143        -0.31486
C         11.25869        12.13140         0.01590
C         12.38932         9.85473        -0.26364
C         12.44613        12.82144        -0.07609
C         11.19961        15.00317        -0.13397
C         11.15605        16.49614         0.10135
C         12.46788        14.24904         0.08969
C         12.33443        17.07638         0.81508
C         11.08670        19.32261         0.82835
C         12.35467        18.60770         1.02484
C         13.66839         1.97805         0.16053
C         13.62767         3.40802        -0.16781
C         14.83086         1.35945         0.51191
C         14.82967         4.11589        -0.41819
C         13.60714         6.21688        -0.51562
C         13.65693         7.69044        -0.14033
C         14.82432         5.51507        -0.64020
C         14.87391         8.43891        -0.73781
C         13.66634        10.65387        -0.51841
C         13.72547        12.06454         0.10130
C         14.92138         9.85487        -0.11234
C         14.94085        12.86361        -0.40571
C         13.66931        14.91569         0.32935
C         13.63635        16.31842         0.80204
C         14.94756        14.25516         0.22153
C         14.93572        17.08204         0.91135
C         13.66946        19.24769         0.97847
C         14.88770        18.56566         0.88483
C         16.14763         1.99186         0.29659
C         16.11769         3.39552        -0.29844
C         17.36165         1.60941         1.03629
C         17.33728         4.19966        -0.14017
C         16.08325         6.22711        -1.15768
C         16.19929         7.68063        -0.54370
C         17.35118         5.47152        -0.81024
C         17.37028         8.61653        -0.97468
C         16.19183        10.66187        -0.30819
C         16.19088        12.03054        -0.16763
C         17.41239         9.91685        -0.50111
C         17.44039        12.76993         0.08341
C         16.14085        14.95903         0.30205
C         16.19208        16.38202         0.54788
C         17.41097        14.26007        -0.03908
C         17.37775        17.09415         0.51891
C         16.12936        19.23572         0.74813
C         17.36509        18.54149         0.62556
C         18.51203         2.37122         0.99502
C         18.51086         3.66451         0.34660
C         19.74547         1.97614         1.68450
C         19.73007         4.55620         0.47414
C         18.57363         5.94013        -1.22586
C         18.61848         8.11124        -1.51454
C         19.82504         5.64766        -0.59345
C         19.85901         8.63810        -1.31600
C         18.76607        10.53090        -0.13111
C         18.75276        12.03849         0.06334
C         19.88792        10.13214        -1.08548
C         20.00978        12.77679        -0.13787
C         18.70872        14.97286         0.10835
C         18.70315        16.37706         0.67551
C         20.03266        14.23067         0.29825
C         19.91386        17.15178         0.21386
C         18.59084        19.22860         0.53612
C         19.84011        18.57184         0.27554
C         20.91126         2.63804         1.52119
C         21.02564         3.76052         0.51384
C         22.16418         4.74646         0.70367
C         20.96376         6.43920        -0.65011
C         21.09055         7.75643        -1.50147
C         22.10831         5.97646         0.13590
C         22.33040         8.55266        -1.16947
C         21.21563        10.70950        -0.67616
C         21.22148        12.10969        -0.37205
C         22.36492         9.87692        -0.80399
C         22.45387        12.90493        -0.26380
C         21.13188        14.99910        -0.45075
C         21.11249        16.49835        -0.14157
C         22.43916        14.25457        -0.24259
C         22.24432        17.28548        -0.42012
C         21.01175        19.32658         0.01849
C         22.19702        18.68176        -0.31224
O         14.32253        16.46078         2.09243
O          7.96854        14.31675         1.55995
O         11.41034        15.97184        -1.23712
O         18.55920         6.90983        -2.24689
O          7.37762         5.11147         1.63972
O         12.06534        17.59518         2.11300
O          9.20287        12.24187         1.16876
O          3.17813         3.08413        -1.64724
O          7.20130         8.87728        -1.82388
O          7.15095        12.56980        -1.70376
O          3.16987        12.43415         0.68274
O         16.35519         2.23849        -1.15276
O         18.11169        14.82791        -1.20288
O         10.48888        10.54949        -1.64785
O          2.97338        16.31297         1.74136
O          3.62793         8.15968         0.79019
O          4.35940        15.27888        -1.61041
O         18.10832        12.38932         1.36242
O          8.31030         3.34402        -1.36183
O          5.32188        10.49609         0.73717
O          3.81153        10.64547        -2.52696
H          3.42659         9.82197        -2.92384
O         20.38061        14.20473         1.69526
H         19.65532        13.74232         2.17199
O         13.86237        11.97433         1.55036
H         13.97954        12.88270         1.90460
O         13.64797        10.89277        -1.94576
H         13.78343        10.02255        -2.40147
O         21.20314         3.15091        -0.79555
H         21.98610         2.56417        -0.75481
O         13.80831         7.57195         1.30122
H         12.90865         7.38618         1.66752
O         11.10960         7.59077         1.34759
H         10.18539         7.49428         1.69132
O          5.45607        14.72365         1.63304
H          6.21776        14.75751         2.25673
O         18.82923        16.22995         2.12778
H         18.92154        17.12760         2.51154
O         12.12806         0.70687        -1.19316
H         11.78264         1.47145        -1.71786
O         20.81042        14.89166        -1.86141
H         21.42891        15.46023        -2.36461
O          2.52867         8.31593        -2.70129
H          2.77113         7.37061        -2.87268
O         14.86694        13.15637        -1.81524
H         14.51398        12.35158        -2.27408
O          7.27458        18.22011         2.69538
H          8.07509        17.71868         2.96335
O          3.20541         5.74320        -1.97586
H          3.28477         4.74384        -2.06058
O         10.86027         3.04545        -1.57569
H          9.86555         3.00339        -1.74413
O         21.22108         7.35857        -2.88903
H         20.39358         6.87824        -3.12194
O         14.66869         8.56035        -2.16047
H         14.90168         7.68868        -2.58498
O         16.46574         7.44144         0.84823
H         15.94797         8.09643         1.38029
O          5.67563         3.87523        -1.65627
H          6.63258         3.55491        -1.57987
O          4.64609        13.02569        -2.59030
H          5.54809        13.12892        -2.96650
O          5.55047         3.27845         1.98413
H          5.66799         4.18570         2.35031
O         11.61883         2.33963         2.01135
H         10.99316         3.01159         2.37342
O          9.67484         8.16978        -2.04049
H         10.20433         8.84531        -2.51938
O         15.93777         6.30284        -2.59916
H         16.83222         6.49718        -2.96864
O          2.05053        14.38384        -2.19785
H          2.92301        14.15064        -2.60153
O          6.10771         6.37980        -1.74271
H          6.01578         5.47937        -2.15051
O          2.06258         6.06853         1.56838
H          2.32674         7.00948         1.66174
O          8.59997         8.06917         1.42589
H          7.77422         7.70205         1.83777
O          6.45373        16.65779        -1.36227
H          5.63103        16.51445        -1.88792
O         19.56085        10.74958        -2.36724
H         20.22993        10.46212        -3.02393
O          0.94937         3.93371        -1.07981
H          1.02994         4.64835        -1.74281
O         14.96142         9.65014         1.31896
H         14.74811        10.50210         1.77111
O         19.61134         5.24586         1.74947
H         18.77636         5.76066         1.73998
O         19.08834         9.94585         1.15014
H         18.54238        10.41028         1.82369
O          4.53283         5.49918         1.44774
H          4.59952         6.44232         1.72920
O         11.10276         6.22641        -2.08395
H         11.00801         5.28519        -2.35256
O          6.02965         7.81361         1.56764
H          5.72483         8.72014         1.81409
O          9.97598         4.34493         1.76172
H          9.12854         4.76158         2.06548
O          9.54543        17.62130        -1.26917
H          9.92783        16.91726        -1.84477
H          0.50609         1.55341         1.10283
H          2.34540         3.67329         1.95057
H          2.32895        -0.00772         0.39097
H         -0.17368         6.12338        -0.26831
H          0.03407         8.22529        -1.41033
H          0.10642        10.10944        -0.59756
H          0.05803        12.52224        -0.40040
H          0.03103        14.69034        -0.47139
H          0.10776        16.89647         0.48632
H          1.45613        19.10863         0.75123
H          5.00923        -0.00312         0.76328
H          3.60887        20.27503         0.88777
H          7.49298         0.07945         0.49393
H          6.04925        20.25819         1.07199
H          9.90654         0.24049         0.93745
H          8.62307        20.25928         1.43767
H         12.48406         0.28019         0.79291
H         11.07782        20.41449         0.97413
H         14.80586         0.31584         0.86446
H         13.68074        20.34116         0.85105
H         17.33428         0.69577         1.65035
H         16.14396        20.33569         0.76752
H         19.69631         1.10495         2.35672
H         18.58624        20.32802         0.58652
H         21.81702         2.30056         2.05030
H         23.07854         4.42558         1.22771
H         22.96983         6.65317         0.24536
H         23.29541         8.04417        -1.31838
H         23.35198        10.32521        -0.60720
H         23.41131        12.36792        -0.19100
H         23.38780        14.80755        -0.16746
H         23.18631        16.80544        -0.72230
H         20.97131        20.42382         0.07067
H         23.10227        19.27022        -0.51633
