         204
 CSIRO Nanostructure Databank - Neutral Graphene Oxide Data Set
C        -11.08384         0.74349         0.14930
C         -9.86332         1.48859        -0.03100
C         -8.63125         0.77087        -0.09995
C         -7.41474         1.47117        -0.34747
C         -6.20588         0.72377        -0.47913
C         -4.96919         1.44481        -0.83318
C         -3.66857         0.67883        -0.71198
C         -2.43539         1.43012        -0.44875
C         -1.21148         0.72328        -0.10946
C         -0.01867         1.46604         0.12726
C          1.15487         0.78617         0.77119
C          2.45809         1.49979         0.48194
C          3.68832         0.75436         0.74757
C          5.01788         1.49809         0.61785
C          6.23486         0.72759         0.30771
C          7.43216         1.44075         0.02416
C          8.64217         0.71143        -0.15134
C          9.88483         1.43510        -0.28343
C         11.10722         0.66634        -0.39202
C         -9.85155         2.88624        -0.16651
C         -8.65160         3.58422        -0.41263
C         -7.44033         2.89112        -0.51304
C         -6.20453         3.65494        -0.94902
C         -4.92119         2.90928        -0.70098
C         -3.70898         3.56523        -0.60465
C         -2.46775         2.81055        -0.51757
C         -1.18223         3.52049        -0.59739
C          0.04869         2.83606        -0.16859
C          1.26038         3.57527        -0.06595
C          2.48949         2.86609         0.22127
C          3.75012         3.59019         0.15830
C          4.97564         2.91844         0.24578
C          6.21498         3.60173         0.05539
C          7.43772         2.87340        -0.00850
C          8.67592         3.57951        -0.14744
C          9.88775         2.82394        -0.26419
C         -8.69331         5.07933        -0.66422
C         -7.39001         5.77704        -0.33175
C         -6.17974         5.06926        -0.42316
C         -4.94973         5.71180        -0.14432
C         -3.68286         5.00670        -0.33665
C         -2.48246         5.67759        -0.21252
C         -1.20266         5.03426        -0.54440
C          0.05997         5.73976        -0.28268
C          1.28136         5.00130        -0.24479
C          2.52626         5.69615        -0.20788
C          3.74711         5.01189        -0.03313
C          4.99079         5.73154        -0.04423
C          6.21954         5.02407        -0.02679
C          7.47209         5.73209        -0.06829
C          8.67359         4.99158        -0.14082
C         -7.38180         7.14577        -0.02494
C         -6.16901         7.81957         0.21889
C         -4.96014         7.08359         0.20637
C         -3.71481         7.77215         0.58133
C         -2.40950         7.02991         0.36517
C         -1.17611         7.81703         0.20594
C          0.01791         7.14274        -0.11957
C          1.23904         7.92664        -0.32233
C          2.55962         7.14893        -0.40974
C          3.79337         7.88448        -0.12259
C          5.00144         7.16394        -0.04167
C          6.25471         7.87008         0.02570
C          7.45577         7.15580        -0.01787
C         -6.11614         9.25025         0.46405
C         -4.93912         9.92798         0.60881
C         -3.66466         9.24797         0.60450
C         -2.44796         9.90198         0.62452
C         -1.18476         9.22544         0.43355
C          0.03892         9.94568         0.42133
C          1.26978         9.33704         0.09622
C          2.52071         9.99271         0.13245
C          3.75306         9.30239         0.00968
C          5.01684         9.98700         0.12108
C          6.20571         9.30781         0.10247
C        -11.07934        -0.62393         0.22853
C         -9.85630        -1.37552         0.20049
C         -8.60926        -0.64495         0.07721
C         -7.38558        -1.33454         0.08973
C         -6.17429        -0.66444        -0.21764
C         -4.91216        -1.41006        -0.21602
C         -3.71597        -0.74938        -0.37244
C         -2.40521        -1.43423        -0.39737
C         -1.18364        -0.68545        -0.06388
C          0.03570        -1.40393         0.25641
C          1.19186        -0.71511         0.58078
C          2.44523        -1.42437         1.05446
C          3.70110        -0.70169         0.63018
C          4.98552        -1.37978         0.77072
C          6.22369        -0.67122         0.38092
C          7.39899        -1.40906         0.05708
C          8.61423        -0.70163        -0.18330
C          9.84871        -1.44298        -0.40067
C         11.09201        -0.69346        -0.42726
C         -9.84878        -2.77672         0.18138
C         -8.64148        -3.51608         0.25029
C         -7.38330        -2.74817         0.61151
C         -6.12265        -3.51115         0.31349
C         -4.93416        -2.85905         0.03142
C         -3.69613        -3.59627         0.03133
C         -2.41540        -2.93249        -0.22347
C         -1.16531        -3.59540         0.19441
C          0.01624        -2.86917         0.33655
C          1.24448        -3.56815         0.62882
C          2.46418        -2.91066         0.77520
C          3.70533        -3.63725         0.71845
C          4.99777        -2.90507         0.75834
C          6.20062        -3.57665         0.21112
C          7.35156        -2.83771        -0.08479
C          8.49972        -3.50043        -0.80967
C          9.81113        -2.79731        -0.60594
C         -8.61074        -4.90798         0.13635
C         -7.41861        -5.67421         0.23622
C         -6.15450        -4.97372         0.67920
C         -4.90343        -5.71438         0.31524
C         -3.68797        -5.00005         0.21218
C         -2.44241        -5.72606         0.19315
C         -1.20921        -5.03221         0.28489
C         -0.01527        -5.76705         0.46235
C          1.19941        -5.02458         0.79702
C          2.51922        -5.79984         0.79791
C          3.74375        -5.02578         0.57384
C          4.96515        -5.73643         0.24015
C          6.15924        -4.99316        -0.00211
C          7.37626        -5.69464        -0.35218
C          8.54375        -4.98110        -0.60980
C         -7.38906        -7.05500         0.04449
C         -6.17895        -7.80852         0.09157
C         -4.92334        -7.11967         0.19387
C         -3.69343        -7.84700         0.10570
C         -2.45210        -7.14787         0.17466
C         -1.22284        -7.87094         0.17328
C          0.00268        -7.17279         0.34338
C          1.26409        -7.89321         0.32523
C          2.46790        -7.23130         0.46554
C          3.77210        -7.97071         0.57155
C          4.96558        -7.14494         0.13099
C          6.16575        -7.83560        -0.21900
C          7.34364        -7.12274        -0.43454
C         -6.15323        -9.22421        -0.05999
C         -4.96466        -9.92842        -0.09977
C         -3.69955        -9.26615        -0.01966
C         -2.46395        -9.96706        -0.07904
C         -1.23453        -9.30047         0.02040
C          0.02825        -9.98721        -0.07123
C          1.23758        -9.32524         0.04862
C          2.50385        -9.99169        -0.17216
C          3.70820        -9.35033        -0.03544
C          4.96464        -9.98445        -0.35828
C          6.12804        -9.27759        -0.40455
O         -6.20670        -5.02288         2.17782
H         -5.30932        -4.79205         2.50271
O          1.87213         7.64104        -1.61033
O          1.82890        -5.47099         2.05264
O          4.45885         1.23164         1.94330
O         -3.01328         7.13308         1.70617
O         -4.27607         0.94903        -2.03514
O         -9.78644         5.68409         0.03232
H         -9.63193         5.58314         0.99364
O         -1.12373         4.31950        -1.83082
O         -2.28129        -2.32472        -1.57293
O          5.16716        -2.18555         2.03230
O          8.19593        -3.33110        -2.27095
H          7.37113        -3.83322        -2.44763
O          2.46607        -1.31129         2.53519
H          3.36700        -1.61282         2.81329
O          0.96392         0.97127         2.22921
H          1.58954         0.34278         2.67278
O          3.97700        -8.18989         2.01704
H          3.78886        -7.34113         2.47333
O         -6.30545         3.77632        -2.41390
H         -6.00567         2.92676        -2.80401
O         -7.42518        -2.60278         2.07762
H         -7.23634        -3.50360         2.44564
H         12.03298        -1.25489        -0.52643
H         12.06147         1.21091        -0.44985
H         10.84218         3.36531        -0.34973
H          9.63179         5.52936        -0.20160
H          8.41184         7.70077        -0.00666
H          7.15455         9.86119         0.16334
H          5.01303        11.08367         0.20751
H          2.54603        11.07252         0.34530
H          0.02415        11.01674         0.67474
H         -2.43406        11.00059         0.69674
H         -4.94691        11.02160         0.72950
H         -7.06709         9.80308         0.47897
H         -8.33348         7.69627         0.00579
H         -8.89427         5.23231        -1.76067
H        -10.79319         3.45197        -0.10767
H        -12.03427         1.29558         0.19169
H        -12.02812        -1.17110         0.33203
H        -10.80381        -3.31801         0.09108
H         -9.55654        -5.44158        -0.05424
H         -8.32579        -7.58136        -0.19743
H         -7.10769        -9.76469        -0.14414
H         -4.98320       -11.02292        -0.20787
H         -2.47694       -11.06109        -0.19876
H          0.02213       -11.07090        -0.26444
H          2.48289       -11.03372        -0.52910
H          4.96247       -11.05901        -0.59647
H          7.07022        -9.78497        -0.65959
H          8.26462        -7.65945        -0.70687
H          9.46295        -5.52347        -0.87875
H         10.74213        -3.35716        -0.78334
