         661
 CSIRO Nanostructure Databank - Neutral Graphene Oxide Data Set
C          5.97851        31.63848        -0.61489
C          5.98262        33.00133        -0.74460
C          8.40806        27.37316         0.38855
C          8.35244        28.74274         0.12548
C          7.18091        29.49206        -0.17688
C          8.40601        31.64220        -0.34508
C          7.19514        30.89070        -0.39158
C          8.43635        33.05139        -0.45799
C          7.19528        33.77740        -0.66737
C          8.40109        35.93851        -0.65954
C          7.19550        35.17115        -0.72020
C          8.41243        37.32207        -0.66116
C         10.83978        23.09407         0.64827
C         10.87422        24.51751         0.95947
C          9.73330        25.24397         0.66020
C         10.83912        27.40248         0.81774
C          9.65995        26.68525         0.65344
C         10.77304        28.89455         0.90985
C          9.64960        29.45864         0.07649
C         10.87214        31.69460         0.22048
C          9.67596        30.93652        -0.17202
C         10.84891        33.12133         0.11024
C          9.65560        33.76601        -0.32020
C         10.88769        35.96858        -0.22669
C          9.71619        35.19946        -0.77554
C         10.86872        37.36905        -0.25190
C          9.62960        38.08682        -0.54298
C         10.82639        40.25266        -0.47539
C          9.63488        39.47211        -0.65589
C         10.90080        41.61474        -0.73064
C         13.31149        18.79707         0.93648
C         13.26185        20.23429         0.95944
C         11.98303        20.80333         0.86579
C         13.59685        23.22345         1.60544
C         11.70359        22.17173         1.19011
C         13.48479        24.63426         1.39086
C         12.11392        25.24317         1.41483
C         13.36536        27.48328         0.92791
C         12.10049        26.75255         1.21198
C         13.28741        28.87097         0.66219
C         12.07810        29.58148         0.62736
C         13.29422        31.72981         0.70386
C         12.06519        30.99545         0.46787
C         13.17645        33.17685         1.09544
C         12.02195        33.87141         0.41007
C         13.25919        36.00770         0.48855
C         12.04996        35.27620         0.22541
C         13.27881        37.43010         0.30104
C         12.05737        38.09806         0.04369
C         13.39276        40.30629        -0.06310
C         12.02032        39.55701         0.03025
C         13.37576        41.61871        -0.68017
C         12.15678        42.31510        -0.83762
C         13.38708        44.41096        -1.32826
C         12.18744        43.71568        -1.11135
C         13.46547        45.81478        -1.19301
C         15.75831        14.51889         0.25605
C         15.66932        15.92951         0.30391
C         14.50251        16.65042         0.60354
C         15.62726        18.87205         0.20823
C         14.47008        18.07578         0.69121
C         15.68543        20.32562         0.46923
C         14.53394        20.99418         0.89969
C         15.89508        23.14611         0.90566
C         14.61548        22.43455         1.08981
C         15.93341        24.67095         1.08149
C         14.63725        25.37468         1.14573
C         15.84963        27.48196         0.66811
C         14.61909        26.79906         0.89524
C         15.84020        28.93110         0.39945
C         14.52197        29.63991         0.40279
C         15.67771        31.71191         1.41162
C         14.48624        31.07856         0.74110
C         15.70882        33.21109         1.19558
C         14.48445        33.92217         1.00305
C         15.63625        36.16181         1.22012
C         14.44749        35.30779         0.85027
C         15.78397        37.29265         0.18814
C         14.53620        38.13951         0.20013
C         15.88630        40.15617        -0.36307
C         14.61797        39.48806        -0.10884
C         15.91737        41.53158        -0.81106
C         14.63062        42.17246        -1.20703
C         15.92138        44.37141        -1.76291
C         14.61016        43.63821        -1.63607
C         15.86404        45.89096        -1.99277
C         14.65412        46.56270        -1.35802
C         15.84103        48.74262        -1.22208
C         14.64395        47.94489        -1.18400
C         15.81807        50.15337        -1.14019
C         18.33164        10.33583        -0.42350
C         18.27865        11.74264        -0.35826
C         17.06216        12.43649        -0.07907
C         18.19897        14.62889        -0.27746
C         16.97106        13.83466        -0.00286
C         18.25509        16.05315         0.14851
C         16.93129        16.71466         0.24525
C         18.13879        18.81493        -0.68406
C         16.86249        18.13106        -0.19022
C         17.89615        20.29798        -0.62340
C         16.91169        20.99654         0.05083
C         18.32303        23.25527         0.13067
C         17.00445        22.48632         0.15231
C         18.38011        24.69696         0.53580
C         17.14223        25.42591         0.68919
C         18.32757        27.56145         0.07852
C         17.11412        26.82250         0.63968
C         18.42191        29.09402         0.38730
C         17.06130        29.71506         0.69673
C         18.22329        31.75170         1.36183
C         16.99265        31.01044         1.12932
C         18.17030        33.16366         1.39932
C         16.92394        33.87970         1.32052
C         18.23169        36.06411         1.20404
C         16.92634        35.35829         1.41711
C         18.22490        37.43844         0.65028
C         17.06766        38.08819         0.31984
C         18.34500        40.18847        -0.12941
C         17.09438        39.47646        -0.11360
C         18.35153        41.60881        -0.41223
C         17.11469        42.24474        -0.83088
C         18.33462        44.48465        -0.91921
C         17.16960        43.65595        -1.33037
C         18.26748        45.84504        -0.90674
C         17.23075        46.62557        -1.70887
C         18.27465        48.78837        -0.99066
C         17.08697        48.06033        -1.23369
C         18.26416        50.21306        -0.98183
C         17.01715        50.91610        -1.10470
C         18.25280        53.06479        -1.11842
C         17.03647        52.33359        -1.14415
C         18.29170        54.47888        -1.18988
C         20.80560         6.18873        -1.45452
C         20.76788         7.54544        -1.16813
C         19.56896         8.23748        -0.85783
C         20.76581        10.39924        -0.86042
C         19.53771         9.63734        -0.68558
C         20.70008        11.83264        -0.81269
C         19.50529        12.47805        -0.58393
C         20.76085        14.67403        -0.31476
C         19.48903        13.95522        -0.59793
C         20.73483        16.10422        -0.01205
C         19.50115        16.83267        -0.04480
C         20.65942        18.99260         0.03962
C         19.47472        18.27365        -0.10969
C         20.94610        20.43212        -0.42806
C         19.77935        21.36134        -0.51677
C         20.72221        23.12697         0.96618
C         19.59977        22.50766         0.17187
C         20.87862        24.57876         0.49530
C         19.58625        25.35336         0.53933
C         20.76190        27.49993         1.23100
C         19.72665        26.84677         0.31974
C         20.72914        28.83664         1.53114
C         19.37521        29.52040         1.51146
C         20.68119        31.66181         1.66389
C         19.46229        31.02635         1.48228
C         20.63173        33.12945         1.77618
C         19.41071        33.88791         1.43751
C         20.72061        35.96121         1.16294
C         19.47111        35.25518         1.19174
C         20.70252        37.47680         1.03647
C         19.54401        37.99978         0.18873
C         20.78764        40.21231         0.23207
C         19.55800        39.51046         0.11288
C         20.78357        41.66142         0.07904
C         19.55786        42.31406        -0.32972
C         20.72802        44.48635        -0.14717
C         19.64869        43.73341        -0.83755
C         20.65183        45.91250         0.07264
C         19.39425        46.65255        -0.36271
C         20.67692        48.80965        -0.49105
C         19.49091        48.09565        -0.67047
C         20.72097        50.21887        -0.72088
C         19.49302        50.93027        -0.89274
C         20.73539        53.05734        -0.98740
C         19.49852        52.34993        -1.00011
C         20.75611        54.47539        -1.14105
C         19.51744        55.19572        -1.21081
C         20.77419        57.33167        -1.32420
C         19.55241        56.61319        -1.28405
C         20.80652        58.74410        -1.26748
C         23.29508         3.48843        -2.31869
C         22.10132         4.11220        -1.94130
C         23.19714         6.27951        -2.09516
C         22.03614         5.52013        -1.82129
C         23.08311         7.78120        -2.12717
C         22.09268         8.27671        -1.07850
C         23.19646        10.52897        -1.28867
C         21.97704         9.77720        -1.14044
C         23.21023        11.90345        -1.07477
C         21.92085        12.64476        -1.12125
C         23.21809        14.53522         0.01582
C         21.93514        13.97371        -0.43319
C         23.18232        16.03949         0.32799
C         21.93588        16.79264         0.16820
C         23.22093        18.96437         0.34890
C         21.89467        18.25563         0.55483
C         23.29367        20.33927         0.38789
C         22.07305        21.10922         0.32382
C         23.26993        23.14373         1.05788
C         22.03778        22.40571         0.77115
C         23.25575        24.50569         1.30875
C         21.96408        25.23209         1.34689
C         23.24578        27.38665         1.91385
C         21.95728        26.70013         1.60633
C         23.18653        28.81990         2.39677
C         21.92561        29.55580         1.92552
C         23.20856        31.67533         2.09554
C         21.94064        30.94634         1.87275
C         23.24015        33.13208         1.69186
C         21.92167        33.87697         1.81796
C         23.14039        36.04458         1.62920
C         21.89350        35.29326         1.41636
C         23.19001        37.48387         1.30682
C         22.04140        38.03488         0.49975
C         23.21983        40.24307         0.74145
C         22.01405        39.54774         0.51107
C         23.20618        41.74128         0.85539
C         21.95281        42.36887         0.32393
C         23.16625        44.36010        -0.63920
C         22.00073        43.85487         0.28258
C         23.13215        45.88788        -0.49492
C         21.97309        46.62953         0.08446
C         23.19132        48.79416        -0.60584
C         21.94908        48.12378        -0.17181
C         23.23839        50.22941        -0.70524
C         21.96122        50.94169        -0.73105
C         23.26950        53.05933        -0.73128
C         21.95605        52.32992        -0.85559
C         23.21441        54.46170        -1.26850
C         22.01204        55.17012        -1.30091
C         23.23719        57.31843        -1.43534
C         22.02049        56.61114        -1.41043
C         23.26458        58.72770        -1.27720
C         22.02872        59.45087        -1.21104
C         23.29565        61.52642        -1.00468
C         22.07672        60.86970        -1.08611
C         24.43975         4.23508        -2.58208
C         25.57737         6.44354        -2.71443
C         24.41029         5.65303        -2.47673
C         25.60550         7.83404        -2.45634
C         24.40603         8.50060        -2.01544
C         25.64233        10.60822        -1.74247
C         24.42887         9.83976        -1.64355
C         25.67786        11.95682        -1.34671
C         24.45488        12.62309        -0.93254
C         25.82499        14.51532         0.04356
C         24.49416        13.89189        -0.37319
C         25.65848        16.03935         0.21634
C         24.47976        16.72782         0.28831
C         25.69170        18.93140         0.02921
C         24.49431        18.20763         0.65805
C         25.76012        20.36226         0.51289
C         24.54008        21.05448         0.62246
C         25.76212        23.10996         1.13621
C         24.53504        22.43605         0.94495
C         25.80272        24.57415         1.31393
C         24.49272        25.31730         1.37054
C         25.71073        27.38225         2.31435
C         24.43191        26.72108         1.88122
C         25.76489        28.86506         2.34290
C         24.46893        29.57427         1.98528
C         25.65025        31.74345         2.94761
C         24.40636        31.04531         2.35168
C         25.61590        33.26298         2.68499
C         24.27706        33.93675         2.46883
C         25.64185        36.10256         1.95475
C         24.40800        35.29137         1.80272
C         25.60809        37.56443         1.78296
C         24.48671        38.19003         1.31013
C         25.66227        40.34402         1.19384
C         24.43261        39.60914         1.09709
C         25.69542        41.69614         0.68763
C         24.48781        42.39175         0.35040
C         25.77221        44.24214        -0.54557
C         24.49961        43.66966        -0.24742
C         25.98963        45.50877        -1.13847
C         24.08658        46.63360        -1.11303
C         25.65487        48.63930        -0.86270
C         24.28758        48.04614        -0.96301
C         25.71649        50.13372        -0.96858
C         24.45252        50.85515        -0.93734
C         25.72848        53.02425        -1.14109
C         24.42821        52.29579        -1.38031
C         25.75278        54.37542        -1.30455
C         24.48680        55.08833        -1.61914
C         25.78549        57.30047        -1.36024
C         24.50974        56.61465        -1.66060
C         25.75065        58.67578        -1.16655
C         24.51963        59.41739        -1.18013
C         24.50787        60.81697        -1.03836
C         26.78633         8.59707        -2.61198
C         27.94836        10.77391        -2.55224
C         26.81692         9.97536        -2.29393
C         27.99278        12.13639        -2.17760
C         26.88320        12.72738        -1.45413
C         28.25142        14.68049        -1.05888
C         27.00191        14.01436        -0.86711
C         28.61685        15.87657        -0.37856
C         26.84415        16.82873         0.49799
C         28.27794        18.84316         0.32319
C         26.94931        18.16585         0.33361
C         28.25732        20.32254         0.50354
C         26.97342        21.02594         0.71323
C         28.23319        23.15694         1.00258
C         26.99035        22.42048         0.99698
C         28.25445        24.53254         1.43586
C         27.07623        25.20732         1.72466
C         28.29081        27.39344         2.24758
C         27.03810        26.59771         2.26500
C         28.24139        28.76976         2.34521
C         26.97849        29.55761         2.42800
C         28.25196        31.69887         2.73778
C         27.00220        31.02560         2.61247
C         28.50583        33.06179         3.21558
C         26.54886        34.14352         3.18852
C         27.82745        36.31179         3.00819
C         26.69963        35.53163         2.79962
C         28.05749        37.59490         2.39413
C         26.76500        38.38202         2.28726
C         28.12695        40.32655         1.53720
C         26.84703        39.70235         1.59211
C         28.15954        41.69065         1.03488
C         26.96632        42.28116         0.53360
C         28.32434        44.29816        -0.27554
C         27.01247        43.52667        -0.22587
C         28.28122        45.76442        -0.42911
C         27.07840        46.36060        -0.86384
C         28.23863        48.65431        -0.59292
C         26.94137        47.85273        -0.74158
C         28.23847        50.06664        -1.16043
C         26.91804        50.80185        -0.95145
C         28.22972        52.99256        -0.92485
C         26.93010        52.28261        -0.61309
C         28.21247        54.38385        -1.10462
C         27.00198        55.12939        -1.21781
C         26.98528        56.53035        -1.26519
C         29.10458        12.92949        -2.53365
C         30.30478        15.09309        -2.40058
C         29.22519        14.23647        -2.03427
C         30.39320        16.42003        -1.94003
C         29.46553        16.83479        -0.91521
C         30.38832        19.21128        -1.14266
C         29.31475        18.28367        -0.62774
C         30.49673        20.57641        -0.57590
C         29.39331        21.16007         0.07299
C         30.66440        23.20340         0.47099
C         29.40392        22.51820         0.48485
C         30.78975        24.40712         1.21178
C         29.55071        25.32264         1.33010
C         30.81227        27.38547         1.99028
C         29.59803        26.54267         2.30135
C         30.80617        28.84060         2.27877
C         29.48697        29.57241         2.01181
C         30.66938        31.69277         2.75424
C         29.48771        30.97636         2.59297
C         30.81886        33.09687         2.49028
C         29.66052        33.80994         2.94626
C         30.72900        35.99419         2.39796
C         29.79161        35.24939         3.08853
C         30.61894        37.43372         2.10244
C         29.31889        38.18619         2.16593
C         30.63569        40.31651         1.84852
C         29.30470        39.59956         1.82578
C         30.60770        41.77625         1.42461
C         29.37389        42.42437         1.04507
C         30.66354        44.42718         0.38113
C         29.45813        43.72115         0.46136
C         30.66254        45.68023        -0.25804
C         29.50347        46.46992        -0.34668
C         30.82745        48.76687        -0.24538
C         29.55357        47.95706        -0.33707
C         30.64985        50.18541        -0.38246
C         29.46503        50.84485        -0.72393
C         29.42666        52.25927        -0.81469
C         31.47001        17.29697        -2.29503
C         32.72028        19.41087        -1.97694
C         31.56855        18.61117        -1.81309
C         32.82623        20.71619        -1.42855
C         31.70046        21.29443        -0.72239
C         33.08442        23.21821        -0.05232
C         31.81646        22.57034        -0.09334
C         33.25241        24.30896         0.81972
C         32.11105        24.74610         1.53624
C         33.14633        27.40433         1.11314
C         32.12338        26.87389         1.90782
C         32.84702        28.78932         0.52459
C         31.99086        29.47739         1.56440
C         33.26865        31.60426         1.37468
C         32.39565        30.67800         2.03878
C         33.12315        32.99441         1.46308
C         31.98231        33.71739         1.99667
C         32.90269        35.95128         1.09982
C         32.05136        35.25639         2.12434
C         32.89924        37.33925         1.03676
C         31.72984        38.06782         1.51789
C         33.05994        40.19214         1.08341
C         31.66024        39.51444         1.02815
C         32.99008        41.69655         0.86394
C         31.80191        42.45106         1.28396
C         33.18595        44.64019         1.00030
C         31.82969        43.96492         1.23128
C         33.20919        46.13151         1.16043
C         32.44066        46.91209         0.34028
C         32.03980        48.30704         0.28645
C         34.01847        21.46477        -1.52903
C         35.45486        23.27468        -0.69111
C         34.20033        22.67812        -0.81325
C         35.76201        24.42281         0.22991
C         34.51274        25.10239         0.82805
C         35.40631        27.36484        -0.03180
C         34.40947        26.66969         0.86785
C         35.22185        28.81779        -0.34279
C         34.14145        29.57478         0.31956
C         35.58486        31.65824         0.42299
C         34.29899        30.90185         0.63325
C         35.35727        33.11312         0.14100
C         34.28874        33.83020         0.96723
C         34.98158        35.85369        -0.23830
C         33.78951        35.08011         0.23843
C         34.90541        37.28435        -0.33798
C         33.97152        38.04632         0.30243
C         35.43579        40.24276         0.24969
C         34.04992        39.55293         0.09088
C         35.47786        41.58082         0.53504
C         34.26772        42.43311         0.60776
C         34.31479        43.89899         0.87040
C         36.58756        25.27233        -0.67511
C         37.68963        27.52180        -1.15578
C         36.76726        26.71812        -0.26870
C         37.56631        28.88022        -1.38483
C         36.34594        29.59354        -0.95515
C         37.67224        31.78496        -1.03558
C         36.45928        31.06160        -0.65244
C         37.81313        33.23082        -0.58561
C         36.41592        33.84188        -0.35178
C         38.17089        36.45605        -1.03431
C         36.22735        35.26816        -0.29227
C         38.16172        37.81699        -1.24789
C         36.92977        38.49387        -0.77143
C         36.73576        39.61049        -0.01939
C         38.61098        29.68683        -1.93225
C         39.74224        31.87598        -2.32501
C         38.64618        31.09637        -1.77855
C         39.77004        33.22974        -2.20507
C         38.79670        34.02070        -1.46886
C         38.95318        35.38800        -1.60882
O         26.15212        48.18678         0.46934
O         33.32233        42.13657        -0.49883
O         19.65404        46.36747         1.05724
O         22.89602        37.07111         2.69152
O         11.97092        26.14125         2.56224
O         17.46121        23.15206        -1.05715
O         36.29275        31.76489         1.66343
O         27.99523        16.11302         0.85471
O         34.73868        27.76246        -1.27385
O         21.21961        33.59849         3.06541
O         25.25811        25.27153         0.10123
O         21.57023        25.71109         2.67055
O         18.79211        20.99141        -1.45293
O         12.64250        40.19341         1.18376
O         25.34242        35.35131         0.69677
O         26.26441        26.72222         3.50767
O         18.03876        27.45478        -1.30346
O         27.89724        43.48564        -1.41616
O         10.00191        29.93210        -1.24450
O         16.80569        43.76192        -2.76583
O         27.54783        33.64369         4.03503
O         28.81674        35.86426         3.87983
O         24.98675        46.00114        -1.97625
O         12.51275        22.63661         2.24675
O         35.79063        37.83408        -1.28064
O         24.51092        55.81551        -2.88925
O         15.18417        29.31324        -0.87145
O         28.70791        48.50964         0.76581
O         21.78814        13.06485        -2.62991
O         14.48513        42.58013        -2.62375
O         16.28819        23.75590         2.18634
O         35.79521        30.57682        -1.88629
O         17.70285        16.43341         1.47820
O         31.85410        46.19351        -0.73300
O         23.14888        15.01751         1.39838
O         29.14892        19.00447        -1.91663
O         32.33975        25.65194         2.56361
O         22.13794        47.55129         1.18444
O         37.27709        36.11297        -0.03452
O         31.82745        31.09907         3.23834
O         34.87917        25.88060         1.99662
O         15.84730        18.41704        -1.20683
O         17.64306        35.91169         2.56997
O         28.70650        19.38618         1.60198
O         18.66042        14.52496        -1.67490
O         26.40899        38.69981         3.69323
H         27.16528        39.18591         4.08530
O         22.30981        44.38890         1.59525
H         22.77306        43.68599         2.11932
O         19.69417        37.48785        -1.17941
H         18.95126        37.83901        -1.71514
O         26.81544        52.34274         0.84926
H         25.89447        52.09658         1.08686
O         23.22183        41.99536         2.32781
H         22.50315        41.45836         2.72704
O         15.41794        31.53715         2.84519
H         14.57907        32.01656         3.04818
O         21.75199        11.87009        -3.41508
H         20.78842        11.65543        -3.46918
O         24.43922        29.55347         0.51838
H         25.17001        30.11572         0.18532
O         18.89376        29.70891        -0.82213
H         18.55874        29.08934        -1.53454
O         18.72878        29.13127         2.75793
H         19.22282        29.53401         3.50252
O         22.66814         7.95598         0.22095
H         22.04280         8.25810         0.91219
O         33.62988        39.95609         2.38644
H         32.91634        40.06699         3.05868
O         32.16438        28.66475        -0.73504
H         32.82496        28.33025        -1.38498
O         21.35319        24.50389        -0.86117
H         21.19339        25.39692        -1.26793
O         29.42877        29.78397         0.57505
H         28.56737        30.19590         0.35648
O         32.96953        34.59712        -0.86559
H         32.64309        35.37468        -1.36488
O         23.59486        53.13649         0.69441
H         22.82558        53.52424         1.16262
O         10.42187        29.20551         2.30189
H         10.95573        28.62255         2.88426
O         33.62761        39.77814        -1.28015
H         34.28223        39.32170        -1.85399
O         29.69682        26.03683         3.64418
H         29.82317        26.80211         4.24635
O         24.16683        52.28871        -2.81044
H         24.92870        51.87166        -3.26311
O         20.46461        38.02674         2.34720
H         21.16413        37.66334         2.94563
O         12.86512        33.15966         2.54407
H         12.81421        34.09311         2.84502
O         37.47063        26.64760         1.01214
H         37.24374        25.78495         1.44377
O         38.40308        33.14053         0.73970
H         37.73741        32.61429         1.29230
O         18.26353        18.46790        -2.09017
H         17.37371        18.59026        -2.49345
O         17.91813        46.76079        -2.98666
H         17.20200        46.76923        -3.67176
O         20.40100        26.94591        -0.97585
H         19.62475        27.10027        -1.60941
O         21.44273        20.23529        -1.78553
H         20.65309        20.10339        -2.35709
O         24.65033        18.25994         2.09916
H         23.77196        18.04947         2.49453
O         20.40362        23.14255         2.37237
H         20.53752        22.24576         2.74121
O         31.47221        44.42040         2.58568
H         30.59605        44.03970         2.80806
O         25.47413        18.94631        -1.40459
H         26.24566        19.37070        -1.83554
O         35.00663        34.21900         2.17432
H         35.56360        33.42242         2.40356
O         28.36173        49.88386        -2.61027
H         28.57161        50.75466        -3.00936
O         30.97171        28.84510         3.73349
H         31.90742        28.64147         3.94610
O         31.15067        39.50045        -0.31723
H         31.90688        39.59137        -0.95069
O         15.59195        46.02920        -3.41934
H         15.81208        45.17149        -3.84751
O         22.51986         8.13269        -3.42865
H         23.15631         7.84996        -4.11820
O         23.12434        28.79642         3.84034
H         22.50465        28.08849         4.11508
O         15.27948        36.76835         2.48147
H         16.10430        36.79826         3.02552
O         26.12868        14.00339         1.36968
H         26.90482        14.50968         1.70037
O         15.87314        36.64857        -1.12028
H         15.72303        37.32874        -1.80977
O         22.30578        37.58073        -0.84528
H         21.47293        37.65509        -1.37059
O         29.49061        25.95230         0.01695
H         29.32732        25.26039        -0.65819
O         20.04563        43.61535        -2.26246
H         19.23348        43.42558        -2.78199
O         32.79814        35.42544         3.38697
H         33.71454        35.08150         3.21987
O         25.48875        31.57395         4.38755
H         26.21556        32.07881         4.81759
O         23.62716        33.13430         0.29574
H         23.10788        32.44992        -0.17607
O         31.08601        40.29850         3.24219
H         30.46293        40.83408         3.77623
O         22.88400        43.99324        -1.99178
H         23.59693        44.36299        -2.55715
O         23.74840        34.18604         3.78990
H         23.56448        33.32331         4.22003
O         21.76442        18.22746         2.04569
H         21.04790        17.59168         2.26527
O          9.97459        35.11067        -2.23316
H          9.24822        34.57894        -2.62399
O         36.56811        23.95917         1.38458
H         35.95592        23.73603         2.11746
H          5.02783        31.08781        -0.67089
H          5.03492        33.53621        -0.90659
H          7.48394        26.77579         0.36176
H          6.21090        28.97132        -0.19457
H          6.23431        35.70559        -0.77759
H          7.45966        37.87125        -0.72501
H         10.08758        22.75998        -0.08198
H          8.83450        24.69007         0.34871
H          8.70144        39.99519        -0.91445
H          9.98732        42.15804        -1.01658
H         12.37146        18.25331         1.11583
H         11.15071        20.14269         0.57488
H         11.25165        44.28736        -1.02233
H         12.55692        46.35400        -0.88358
H         14.84433        13.92551         0.41137
H         13.56668        16.10045         0.78646
H         13.69455        48.43880        -0.92582
H         14.84934        50.67443        -1.15147
H         17.40498         9.75852        -0.28526
H         16.15405        11.83853         0.09223
H         16.08530        52.88192        -1.21651
H         17.34700        55.03928        -1.25441
H         19.87948         5.59444        -1.41214
H         18.62323         7.67454        -0.82277
H         18.60452        57.17213        -1.27870
H         19.85941        59.30222        -1.21950
H         23.32952         2.39320        -2.40467
H         21.20672         3.50800        -1.73327
H         23.31747        62.62061        -0.90246
H         21.13640        61.43784        -1.04654
H         25.37602         3.73412        -2.86657
H         26.50194         5.94118        -3.03646
H         26.68761        59.22005        -0.97354
H         25.46024        61.36000        -0.95602
H         27.69714         8.11202        -2.99392
H         28.82139        10.33044        -3.05384
H         29.17035        54.92033        -1.19140
H         27.93651        57.07206        -1.14722
H         29.88080        12.51576        -3.19356
H         31.05670        14.71513        -3.10857
H         31.52582        50.81689        -0.15968
H         30.37902        52.81150        -0.75816
H         32.29063        16.89221        -2.90676
H         33.58926        18.98935        -2.50457
H         33.79618        46.56925         1.98286
H         32.76088        49.07251         0.61954
H         34.87175        21.04273        -2.08082
H         36.30771        22.82820        -1.22337
H         36.45690        42.07922         0.62243
H         35.29578        44.39673         0.81326
H         37.50115        24.77003        -1.03853
H         38.62712        27.02269        -1.44936
H         38.90985        38.33674        -1.86368
H         37.62071        40.16298         0.33178
H         39.47946        29.18914        -2.39043
H         40.52855        31.35574        -2.89058
H         40.58173        33.78425        -2.70164
H         39.75645        35.71520        -2.29078
