         620
 CSIRO Nanostructure Databank - Neutral Graphene Oxide Data Set
C         23.00484        27.37897         0.36088
C         23.11897        28.69428         0.73348
C         23.26221        31.56008         1.25885
C         23.31383        32.90977         1.50821
C         23.47865        35.79671         2.09716
C         23.59919        37.12535         2.44296
C         23.74926        40.00615         2.90329
C         23.77172        41.37699         3.03706
C         23.74895        44.30421         3.20362
C         23.69028        45.68092         3.12300
C         24.85791        24.87832        -1.67277
C         23.87236        25.43212        -0.87424
C         25.31382        27.39838        -0.49606
C         24.06912        26.71979        -0.32209
C         25.41748        28.77317        -0.11818
C         24.29990        29.44195         0.44554
C         25.52228        31.59404         0.31495
C         24.36340        30.86446         0.68049
C         25.56450        33.01136         0.55863
C         24.47059        33.67178         1.18560
C         25.76608        35.77468         1.26229
C         24.55129        35.07938         1.49609
C         25.88166        37.16062         1.62152
C         24.80133        37.85528         2.21308
C         26.13825        39.98147         2.37219
C         24.90418        39.28088         2.51232
C         26.16220        41.43024         2.50026
C         24.94837        42.12673         2.77960
C         25.96939        44.32145         2.20371
C         24.88742        43.58072         2.74818
C         25.90236        45.74326         2.07652
C         24.75454        46.43266         2.55403
C         25.75747        48.55864         1.90744
C         24.71642        47.85480         2.46997
C         28.09519        23.00270        -2.16463
C         28.04419        24.39819        -2.09168
C         26.08819        25.54465        -1.81483
C         27.73463        27.35627        -1.15527
C         26.40625        26.74130        -1.14738
C         27.78386        28.76222        -0.86359
C         26.62826        29.48270        -0.40970
C         27.85586        31.61177        -0.54917
C         26.67482        30.89635        -0.21643
C         27.79469        33.12099        -0.63370
C         26.74700        33.75678         0.25280
C         28.22582        35.71599         0.71736
C         26.86379        35.08152         0.65263
C         28.23355        37.21647         0.81556
C         27.12226        37.86474         1.40812
C         28.59964        39.65931         1.96819
C         27.26811        39.18945         1.91538
C         28.64305        41.78706         2.16503
C         27.31165        42.26427         2.18163
C         28.29687        44.36361         1.33183
C         27.18206        43.64204         1.86937
C         28.15924        45.75864         1.06913
C         26.98219        46.47151         1.48422
C         27.93810        48.59510         0.65561
C         26.89902        47.89323         1.37171
C         28.05463        50.04176         0.56622
C         30.31131        23.05477        -1.18100
C         29.19985        22.33163        -1.65773
C         30.26489        24.48049        -1.15879
C         29.05847        25.17571        -1.49462
C         30.20021        27.32435        -1.17463
C         28.95779        26.62333        -1.30319
C         30.19920        28.74008        -1.21696
C         29.00974        29.47889        -1.04186
C         30.22895        31.66211        -1.21639
C         29.01987        30.92758        -0.95981
C         30.29669        33.06302        -1.04838
C         29.14098        33.80567        -0.59280
C         30.42676        35.90900        -0.48580
C         29.23706        35.13889        -0.23484
C         30.55548        37.22498        -0.06423
C         29.45032        37.89895         0.58301
C         30.87818        39.99723         0.98022
C         29.63051        39.19686         1.14692
C         30.91247        41.53975         1.18106
C         29.69812        42.35837         1.44980
C         30.62133        44.47623         0.45905
C         29.53349        43.71650         1.01725
C         30.46757        45.82742         0.10814
C         29.19363        46.44564         0.37638
C         30.67955        48.92096        -0.28346
C         28.89808        47.79450         0.02701
C         30.54706        50.22424         0.22506
C         29.21207        50.76713         0.38966
C         32.72644        20.26111        -0.48114
C         31.55080        20.94253        -0.69905
C         32.71822        23.07963        -0.54517
C         31.52950        22.35862        -0.79755
C         32.69689        24.52273        -0.62477
C         31.47414        25.21468        -0.90343
C         32.70111        27.34343        -0.92689
C         31.46177        26.62511        -1.02611
C         32.73120        28.73734        -1.21140
C         31.46815        29.42264        -1.51874
C         32.75752        31.63328        -1.44921
C         31.46270        30.94543        -1.58415
C         32.74170        33.06330        -1.44872
C         31.52602        33.75605        -1.26525
C         32.79146        35.97899        -1.47444
C         31.50941        35.23243        -1.23819
C         32.92357        37.35987        -0.95740
C         31.91838        37.88851         0.02034
C         33.03310        40.15237        -0.31511
C         31.92518        39.39471         0.13500
C         33.09437        41.56051        -0.15599
C         32.06241        42.29754         0.57686
C         33.04449        44.46165        -0.38612
C         31.93592        43.78980         0.33853
C         32.96722        45.93110        -0.55609
C         31.66293        46.62986        -0.38023
C         33.02583        48.74777         0.16690
C         31.80099        48.10194        -0.11716
C         33.01568        50.15631         0.46136
C         31.77979        50.87488         0.57620
C         33.02476        52.88934         1.17592
C         31.82805        52.24162         0.98051
C         35.26771        18.84500        -0.47896
C         35.21171        20.24838        -0.26423
C         33.95626        20.95277        -0.33309
C         35.16107        23.07430         0.00333
C         33.94654        22.37399        -0.29699
C         35.08272        24.54956         0.10738
C         33.88645        25.24982        -0.41723
C         35.14901        27.40164        -0.47610
C         33.91541        26.65591        -0.59196
C         35.13163        28.77896        -0.75991
C         33.94034        29.46173        -1.15607
C         35.20405        31.61906        -1.27997
C         33.95293        30.90325        -1.33911
C         35.20725        33.03936        -1.45508
C         33.99223        33.77223        -1.54618
C         35.25265        35.87543        -1.65922
C         34.03284        35.18972        -1.61510
C         35.25196        37.36015        -1.76605
C         34.07862        38.08001        -1.21092
C         35.40184        40.19246        -1.12301
C         34.16827        39.47391        -0.92346
C         35.42749        41.60936        -1.00899
C         34.09739        42.30997        -0.99593
C         35.38396        44.55273        -1.23769
C         34.16492        43.79550        -0.74823
C         35.41169        45.97639        -0.69582
C         34.25972        46.65593        -0.41641
C         35.48579        48.72133         0.22756
C         34.27829        48.04774         0.02134
C         35.50137        50.11905         0.59241
C         34.25823        50.83783         0.67698
C         35.53487        52.90560         1.15230
C         34.27534        52.22088         1.00668
C         35.60752        54.29721         1.43497
C         37.69721        18.83239        -0.33450
C         36.47039        18.16127        -0.49658
C         37.68246        20.26266        -0.13492
C         36.41630        20.96815        -0.04891
C         37.63648        23.10057         0.52981
C         36.37378        22.38256         0.17572
C         37.66696        24.60919         0.45359
C         36.36445        25.33623         0.26303
C         37.64252        27.38763        -0.19685
C         36.40584        26.74370        -0.17105
C         37.66682        28.84884        -0.23639
C         36.34526        29.56174        -0.50916
C         37.64162        31.63315        -0.83060
C         36.40697        30.94929        -0.96722
C         37.61647        33.04430        -0.95578
C         36.43186        33.74707        -1.31740
C         37.67639        35.87251        -1.16974
C         36.46210        35.16477        -1.46474
C         37.83410        37.27609        -1.64313
C         36.56861        38.07881        -1.75473
C         37.85134        40.19723        -1.41956
C         36.61384        39.50322        -1.38129
C         37.86619        41.61335        -1.25310
C         36.63623        42.32407        -1.08895
C         37.88240        44.39719        -0.82629
C         36.66457        43.76424        -0.98324
C         37.94711        45.86639        -0.64479
C         36.70269        46.68400        -0.59397
C         37.94487        48.63452         0.34625
C         36.75135        48.03620         0.02789
C         37.97773        49.97552         1.04571
C         36.72167        50.77756         0.81947
C         38.02492        52.86395         1.12485
C         36.76174        52.18217         1.03435
C         38.05525        54.24860         1.39956
C         36.81803        54.93707         1.56945
C         40.20972        16.01250        -0.12458
C         38.99980        16.67869        -0.24733
C         40.16791        18.80836        -0.18356
C         38.94884        18.09599        -0.26474
C         40.14684        20.27033        -0.32515
C         38.88095        20.97813        -0.10721
C         40.18549        23.16457         0.15132
C         38.96219        22.33550         0.53885
C         40.16995        24.59550         0.12035
C         38.93890        25.31897         0.14834
C         40.16014        27.44712        -0.18391
C         38.92029        26.70727        -0.08069
C         40.17630        28.88294        -0.31959
C         38.93780        29.56338        -0.43199
C         40.10904        31.71329        -0.34630
C         38.89589        30.96404        -0.56098
C         39.88816        33.07400        -0.04515
C         38.72395        33.76779        -0.44269
C         40.61826        36.30589        -0.57125
C         38.64180        35.18991        -0.45132
C         40.44746        37.46023        -1.29475
C         39.12392        38.03805        -1.63612
C         40.30776        40.20266        -1.76753
C         39.08696        39.51382        -1.63247
C         40.32730        41.62594        -1.57515
C         39.11169        42.30368        -1.28473
C         40.37483        44.34822        -0.83279
C         39.13097        43.69096        -0.95866
C         40.43557        45.66888        -0.18945
C         39.15894        46.40192         0.04208
C         40.51212        48.54966         0.34964
C         39.20662        47.84828         0.40999
C         40.55820        49.94977         0.90132
C         39.26085        50.73699         0.79927
C         40.51224        52.85250         0.95429
C         39.27205        52.12740         0.93717
C         40.53022        54.26363         1.15631
C         39.31799        54.96523         1.44901
C         40.58874        57.04360         1.67414
C         39.38981        56.35028         1.73019
C         42.66198        16.01753         0.25798
C         41.41828        16.72083         0.03739
C         42.61658        18.89167         0.26270
C         41.40105        18.14386         0.01087
C         42.65552        20.28093         0.18495
C         41.43778        21.02749        -0.18443
C         42.64410        23.18775         0.01643
C         41.40356        22.49232         0.04365
C         42.63949        24.60599        -0.02736
C         41.40014        25.31629        -0.02677
C         42.63866        27.47300        -0.19894
C         41.39723        26.74724        -0.12981
C         42.64926        28.89959        -0.28677
C         41.41347        29.62934        -0.33116
C         42.67782        31.79179        -0.41927
C         41.41469        31.07036        -0.32204
C         42.80365        33.22800        -0.60043
C         41.81161        34.16399        -0.23595
C         42.87406        36.02552        -1.45257
C         41.77664        35.48927        -0.71047
C         42.82852        37.35642        -1.91420
C         41.61193        38.10730        -1.83041
C         42.75052        40.27139        -2.34566
C         41.52889        39.49832        -2.05304
C         42.78103        41.68326        -1.93526
C         41.56450        42.33813        -1.58381
C         42.82759        44.43930        -1.20815
C         41.58519        43.70846        -1.18569
C         42.87291        45.82277        -0.88387
C         41.71633        46.45946        -0.24624
C         42.90749        48.66365        -0.30726
C         41.67513        47.92855        -0.05822
C         42.91963        50.09199        -0.05189
C         41.78257        50.70718         0.45699
C         43.05754        52.91035         0.49328
C         41.78282        52.12579         0.82531
C         42.91440        54.38139         0.37927
C         41.73848        55.01412         0.99836
C         43.03296        57.11844         1.15995
C         41.77736        56.39562         1.25585
C         43.79652        16.67810         0.59120
C         45.13042        18.92019         0.78661
C         43.80711        18.14533         0.71538
C         45.11645        20.33849         0.38192
C         43.88300        21.03131         0.27548
C         45.11430        23.14959        -0.01526
C         43.88368        22.45020         0.06606
C         45.10688        24.59060        -0.10326
C         43.88210        25.31875        -0.08785
C         45.11825        27.44964        -0.14576
C         43.87867        26.74757        -0.15806
C         45.12637        28.89294        -0.22545
C         43.89775        29.61448        -0.32567
C         45.17769        31.72582        -0.55805
C         43.91268        31.04556        -0.45424
C         45.24445        33.13620        -0.88791
C         44.03015        33.85636        -1.03311
C         45.31194        35.88788        -1.64880
C         44.07933        35.23290        -1.43415
C         45.36141        37.29111        -2.11755
C         44.06115        38.01786        -2.38123
C         45.31258        40.24173        -2.11842
C         44.07517        39.52105        -2.46655
C         45.26330        41.64773        -1.99936
C         44.01062        42.36700        -1.89675
C         45.24992        44.49910        -1.60792
C         44.02451        43.76658        -1.58035
C         45.23340        45.91810        -1.44223
C         44.04379        46.58647        -1.06475
C         45.23383        48.77398        -1.17365
C         44.04584        48.01675        -0.81351
C         45.22933        50.19103        -1.00478
C         44.12274        50.84914        -0.41054
C         45.35243        53.03261        -0.46025
C         44.16644        52.25235        -0.19531
C         45.44002        54.40377        -0.06323
C         44.19640        55.17728         0.18315
C         44.18278        56.54842         0.71863
C         47.55060        18.80443         0.33404
C         46.42307        18.20693         0.73730
C         47.59901        20.22803        -0.15176
C         46.33039        21.00615         0.13796
C         47.61527        23.09245        -0.09472
C         46.34837        22.41267        -0.00470
C         47.60171        24.54209        -0.33040
C         46.33564        25.30369        -0.14790
C         47.60577        27.41037         0.21512
C         46.33458        26.70543        -0.09054
C         47.60254        28.90526         0.20258
C         46.35765        29.60965        -0.18428
C         47.69135        31.71626        -0.37378
C         46.38701        31.00307        -0.36607
C         47.73718        33.18191        -0.68028
C         46.46497        33.84506        -1.01759
C         47.76149        35.97838        -1.30592
C         46.51757        35.21237        -1.38127
C         47.73368        37.41311        -1.38187
C         46.56424        38.09606        -1.80147
C         47.70010        40.25710        -1.46884
C         46.52105        39.51631        -1.83821
C         47.66606        41.66011        -1.48370
C         46.47703        42.37304        -1.75918
C         47.73779        44.53976        -1.76460
C         46.48213        43.80170        -1.70324
C         47.61412        45.96854        -2.04733
C         46.42149        46.67050        -1.71519
C         47.54419        48.87690        -2.23971
C         46.37720        48.09587        -1.67447
C         47.65246        50.28929        -1.74951
C         46.33339        51.02627        -1.63579
C         47.70669        53.08835        -1.14381
C         46.49055        52.39916        -1.02765
C         47.80989        54.38152        -0.59799
C         46.69249        55.02983        -0.07589
C         50.02066        20.34065         0.61818
C         48.84340        20.98506         0.27398
C         50.09559        23.12979         0.25102
C         48.83342        22.41343         0.12719
C         50.15316        24.49463         0.01507
C         48.93471        25.25379        -0.31971
C         50.18026        27.45348        -0.05997
C         48.92370        26.69489         0.08485
C         50.19926        28.82845        -0.05385
C         48.94534        29.61346         0.04431
C         50.21701        31.62612        -0.68992
C         48.93285        30.95092        -0.52931
C         50.27316        33.12586        -0.96098
C         48.96650        33.82898        -1.32030
C         50.14960        36.02376        -0.70070
C         48.96849        35.31609        -1.05118
C         50.11246        37.45304        -0.66706
C         48.92014        38.14857        -1.04632
C         50.05016        40.30730        -0.63698
C         48.89620        39.56769        -1.05648
C         50.02482        41.72899        -0.56186
C         48.73065        42.47179        -0.80179
C         50.35998        44.29650        -1.51177
C         48.90822        43.84252        -1.45218
C         50.55927        45.72276        -1.90598
C         48.73261        46.75596        -2.46200
C         50.17286        48.77683        -2.29505
C         48.84890        48.10862        -2.22123
C         50.17100        50.28525        -2.31730
C         48.82679        51.03503        -2.18077
C         50.16589        53.14716        -1.82713
C         48.79757        52.56261        -2.06819
C         51.22273        21.04742         0.83636
C         52.54646        23.15513         0.85443
C         51.30182        22.42328         0.64713
C         52.65712        24.52798         0.50050
C         51.44934        25.19993        -0.03418
C         52.68549        27.44768         0.17008
C         51.45107        26.71020        -0.14682
C         52.67936        28.82524         0.11829
C         51.44474        29.55266        -0.05396
C         52.53534        31.75702         0.17615
C         51.41939        30.96292        -0.14490
C         52.48055        33.17294         0.17270
C         51.38316        33.88629        -0.35388
C         52.47627        36.06638         0.14346
C         51.33856        35.32056        -0.29670
C         52.44933        37.49928         0.13179
C         51.26990        38.19158        -0.27973
C         52.40537        40.35472         0.13001
C         51.24133        39.61898        -0.25351
C         52.39004        41.78434         0.11378
C         51.15780        42.43887        -0.16458
C         52.34320        44.70465         0.06828
C         51.03462        43.94274        -0.15658
C         52.41336        46.13642        -0.39237
C         51.37704        46.64772        -1.33678
C         52.76765        48.82056        -1.68574
C         51.45865        48.03755        -1.89851
C         52.57608        50.33370        -1.55590
C         51.41139        51.00092        -1.94196
C         51.32037        52.44850        -1.84032
C         54.86522        23.22654         1.60946
C         53.69210        22.52917         1.40478
C         55.00526        24.59728         1.24845
C         53.86869        25.23365         0.65281
C         55.24168        27.42347         0.48354
C         53.94920        26.67223         0.26610
C         55.16902        28.88835         0.72345
C         53.94168        29.58876         0.25207
C         54.84917        31.74946         1.26799
C         53.82727        31.07234         0.42078
C         54.79672        33.24201         1.36228
C         53.57123        33.93797         0.81970
C         54.79174        36.06465         1.05142
C         53.65304        35.38812         0.60413
C         54.70863        37.52412         1.17645
C         53.56923        38.24114         0.59657
C         54.79732        40.39949         0.78032
C         53.58319        39.65559         0.54117
C         54.80801        41.81885         0.57058
C         53.60355        42.52542         0.31081
C         54.81246        44.69032         0.16002
C         53.62011        43.97282         0.20967
C         54.86184        46.12996        -0.07015
C         53.71747        46.80947        -0.43468
C         54.94160        49.00982        -0.42655
C         53.60436        48.30904        -0.49384
C         54.89390        50.40432        -0.67742
C         53.74938        51.03639        -1.13501
C         57.28933        24.72572         2.24836
C         56.22309        25.31185         1.53589
C         57.47196        27.51284         1.71963
C         56.50288        26.67087         0.91459
C         57.44300        28.91722         1.68167
C         56.23852        29.59010         1.21295
C         57.33052        31.83595         1.80480
C         56.10892        31.02839         1.57911
C         57.29073        33.26405         1.70185
C         56.06427        33.98490         1.47925
C         57.25990        36.14267         1.52785
C         56.02340        35.38965         1.40732
C         57.27666        37.56059         1.41366
C         56.01382        38.30977         1.40026
C         57.25027        40.43371         1.08796
C         56.01241        39.73460         1.05715
C         57.23849        41.86405         0.95773
C         56.05307        42.52463         0.66336
C         57.37226        44.73348         0.41499
C         56.08228        43.94888         0.25902
C         57.29237        46.20912         0.44008
C         56.11235        46.87219         0.09979
C         57.34016        49.01324         0.21065
C         56.10696        48.31481        -0.03698
C         58.43476        25.43333         2.59527
C         59.59142        27.61438         2.92842
C         58.52761        26.84674         2.39130
C         59.60593        28.99510         2.79821
C         58.52797        29.68506         2.19860
C         59.71303        31.91211         2.24100
C         58.52427        31.14893         2.08411
C         59.70313        33.28499         2.10021
C         58.50664        34.00310         1.82961
C         59.70192        36.19128         1.65510
C         58.49284        35.43945         1.68145
C         59.70946        37.55271         1.45495
C         58.49447        38.28858         1.33047
C         59.70616        40.47554         0.98997
C         58.48362        39.72271         1.18714
C         59.72457        41.83119         0.97771
C         58.49284        42.60200         1.37963
C         59.59535        44.84965         1.44287
C         58.53271        44.07587         1.04195
C         59.61024        46.25723         1.24899
C         58.48472        46.93747         0.77812
C         58.46770        48.36508         0.63062
O         40.91528        20.71731        -1.53542
O         41.31981        45.70855         0.96928
O         50.61572        32.18965        -2.03442
O         31.40227        30.12630        -2.81017
O         37.52934        46.61256        -1.84497
O         51.07168        48.18603        -3.29991
O         48.25465        29.50632         1.35646
O         52.10353        45.80593         1.03067
O         54.30483        30.50670        -0.85516
O         35.81971        37.86970        -3.01171
O         43.23862        54.94431        -0.92238
O         51.62586        25.85725        -1.35124
O         48.29778        24.94192        -1.59371
O         42.79594        52.45082         1.85685
O         47.83982        32.77657         0.71058
O         32.51203        43.28505         1.60423
O         54.84652        27.00321        -0.86880
O         31.79807        35.84649        -2.55910
O         28.89621        40.63982         2.91537
O         55.03592        31.16707         2.60196
O         31.37355        40.63385         2.22079
O         32.14297        46.28555        -1.73246
O         39.01795        46.77857         1.44285
O         56.97897        44.16197        -0.89541
O         36.86447        29.42574         0.86152
O         44.80513        37.41068        -3.48184
O         44.35344        18.64105         1.99250
O         55.10594        37.99553         2.50795
O         29.61951        48.37354        -1.01941
O         26.97791        25.01434        -2.75830
O         35.47280        25.12455         1.40639
O         49.43924        50.70466        -3.52799
O         43.38268        40.02343        -3.65266
O         48.27689        26.85997         1.40368
O         40.84497        33.77228         0.69579
O         37.61549        23.91595         1.75194
O         39.59161        35.89793         0.28141
O         53.72427        33.65116         2.27013
O         49.80962        46.05057        -3.03634
O         38.62042        37.38995        -2.88691
O         39.22585        21.98001         1.94075
H         38.82058        22.69909         2.48444
O         48.75215        33.70870        -2.75088
H         49.39670        33.03561        -3.08053
O         45.87428        51.24536        -3.01588
H         46.07867        50.41480        -3.51842
O         35.28855        44.64433        -2.69439
H         35.99022        45.26889        -2.98777
O         50.12436        44.34266         0.89187
H         50.55068        45.09557         1.37536
O         53.57352        48.59680        -2.85986
H         52.96568        48.62794        -3.63411
O         33.60372        42.22206        -2.38878
H         34.10493        42.89299        -2.90937
O         51.02599        43.50626        -2.54015
H         50.70528        43.83113        -3.40945
O         32.43966        37.43943         1.34690
H         31.96064        37.94741         2.03862
O         58.46112        42.56591         2.85625
H         58.46461        41.62176         3.12442
O         28.74302        35.28014         2.04373
H         28.16438        35.68179         2.72733
O         57.24774        26.35915        -0.30864
H         56.57332        26.27144        -1.02486
O         48.40620        53.07568        -3.37476
H         48.84531        52.50087        -4.04248
O         52.84042        48.68698         0.69369
H         53.20447        48.19851         1.46202
O         27.30760        33.38783        -2.00497
H         27.94834        32.98417        -2.62922
O         37.97297        49.66586         2.48625
H         38.90332        49.44176         2.73897
O         47.24502        48.99416        -3.70705
H         48.02737        49.47012        -4.08707
O         40.73035        49.74836         2.37074
H         41.49711        49.14808         2.49847
O         48.12401        42.68786         0.52085
H         48.73450        43.28500         1.02173
O         47.67990        20.14535        -1.61655
H         47.77821        21.05944        -1.95967
H         22.07105        26.82866         0.54504
H         22.26504        29.17771         1.22448
H         22.35061        31.01467         1.53365
H         22.44619        33.39467         1.97447
H         22.52512        35.29063         2.29892
H         22.73706        37.61547         2.91375
H         22.79530        39.48576         3.05609
H         22.83558        41.89279         3.28694
H         22.90249        43.77051         3.65605
H         22.80566        46.21321         3.50178
H         24.69403        23.93334        -2.20650
H         22.90897        24.92224        -0.73442
H         25.69511        49.65376         1.84484
H         23.83641        48.38838         2.85750
H         27.27098        22.45497        -2.63869
H         27.15058        50.62530         0.80164
H         29.22248        21.23645        -1.71370
H         29.12536        51.85951         0.50145
H         32.69630        19.16544        -0.42909
H         30.62431        20.36478        -0.80830
H         33.00646        53.94970         1.46130
H         30.88854        52.79772         1.10455
H         34.34415        18.27680        -0.64592
H         34.68719        54.88541         1.54785
H         36.45304        17.07573        -0.65994
H         36.81748        56.01308         1.78698
H         40.22920        14.91320        -0.11548
H         38.07776        16.08841        -0.33005
H         40.61208        58.11852         1.90357
H         38.48112        56.90390         2.00107
H         42.65634        14.91913         0.20004
H         43.04565        58.15975         1.51543
H         44.71249        16.11852         0.82485
H         45.12306        57.11663         0.76228
H         48.47659        18.21378         0.28851
H         46.44975        17.16421         1.08527
H         48.75831        54.93209        -0.64944
H         46.79080        56.07125         0.26029
H         50.04528        19.24890         0.73135
H         50.23174        54.24433        -1.79005
H         52.11070        20.47053         1.12614
H         52.25472        53.01675        -1.73318
H         55.71386        22.68938         2.05176
H         53.65571        21.47159         1.69775
H         55.78146        51.02629        -0.49303
H         53.78210        52.13157        -1.21392
H         57.22276        23.67801         2.57388
H         57.36903        50.10535         0.09876
H         59.24377        24.92184         3.13638
H         60.41458        27.10314         3.44791
H         60.45152        29.55871         3.21579
H         60.66534        31.40673         2.45116
H         60.65141        33.82592         2.21780
H         60.66583        35.67686         1.76346
H         60.67406        38.07586         1.41635
H         60.63811        39.92813         0.78851
H         60.66293        42.37306         0.79039
H         60.46193        44.37368         1.92388
H         60.50884        46.82757         1.52357
H         59.38309        48.93170         0.85431
