         621
 CSIRO Nanostructure Databank - Neutral Graphene Oxide Data Set
C          5.89966        31.94810         0.08786
C          5.87760        33.29374        -0.16057
C          8.45758        27.75501         0.69869
C          8.41618        29.09076         0.44703
C          7.16896        29.83272         0.40393
C          8.30878        31.78612        -0.55584
C          7.10442        31.15121         0.02326
C          8.26586        33.28802        -0.88961
C          7.05256        34.04928        -0.53790
C          8.29537        36.14675        -0.94564
C          7.09448        35.42486        -0.57952
C          8.29665        37.54074        -1.07773
C         11.08729        23.50660         1.29925
C         10.98149        24.80914         0.85291
C          9.64477        25.52180         0.78530
C         10.89397        27.62683         0.12779
C          9.76705        27.04658         0.96686
C         10.87523        29.02806        -0.15558
C          9.72283        29.85668         0.37564
C         10.76001        31.83831        -0.78020
C          9.61333        31.16904        -0.36197
C         10.72627        33.25218        -1.05321
C          9.54740        33.99737        -0.99011
C         10.70260        36.14146        -1.48414
C          9.52702        35.42878        -1.11708
C         10.67833        37.52304        -1.68884
C          9.47455        38.25778        -1.43457
C         10.72416        40.38805        -1.67640
C          9.50723        39.66945        -1.49762
C         10.75390        41.79030        -1.55770
C         13.84495        19.55605         2.40427
C         13.72346        20.85700         1.87873
C         12.46578        21.50628         1.80432
C         13.51530        23.50262         0.84032
C         12.34334        22.81633         1.31062
C         13.39250        24.82571         0.35627
C         12.14370        25.48331         0.35303
C         13.10410        27.40021        -0.94950
C         12.01082        26.83744        -0.14825
C         13.11717        28.89640        -1.18573
C         11.98882        29.69352        -0.67880
C         13.19501        31.77835        -1.29042
C         12.02515        31.12043        -0.86221
C         13.22029        33.18245        -1.49611
C         12.01561        33.94978        -1.16539
C         13.19727        36.03368        -2.06356
C         12.00277        35.44399        -1.46758
C         13.14185        37.44542        -2.50378
C         11.87204        38.23161        -2.20996
C         13.16288        40.38959        -2.03343
C         11.95031        39.69465        -1.97896
C         13.20697        41.79643        -1.78194
C         11.97174        42.50672        -1.60291
C         13.17303        44.65777        -1.38298
C         11.98220        43.91344        -1.42146
C         13.08226        46.06516        -1.05488
C         16.46318        15.72872         3.78048
C         16.53844        17.22675         3.79168
C         15.22262        17.75562         3.31182
C         16.30284        19.62504         2.09740
C         15.11405        18.94562         2.60038
C         16.18319        20.89130         1.48454
C         14.90763        21.54850         1.41830
C         15.97589        23.51526         0.38640
C         14.79399        22.84992         0.89249
C         15.88431        24.80202        -0.16917
C         14.63690        25.61915         0.04380
C         15.61854        27.36004        -1.56493
C         14.40376        26.65813        -1.03780
C         15.63034        28.82094        -1.76124
C         14.44863        29.55377        -1.29921
C         15.68695        31.70699        -1.89231
C         14.48624        31.06118        -1.34219
C         15.63702        33.13323        -2.03304
C         14.40806        33.86415        -1.82504
C         15.65471        35.95698        -2.19720
C         14.39470        35.29342        -2.05168
C         15.70873        37.43453        -2.35015
C         14.44605        38.19665        -2.59937
C         15.73296        40.41863        -2.19292
C         14.42478        39.70467        -2.42362
C         15.71885        41.79076        -1.61767
C         14.44034        42.51529        -1.61738
C         15.66043        44.56162        -0.99207
C         14.41503        43.91379        -1.45031
C         15.94483        45.95603        -1.26399
C         14.11633        46.99451        -1.25004
C         15.70404        48.82891        -0.56502
C         14.39339        48.23985        -0.65607
C         15.77530        50.22515        -0.32194
C         18.56787        11.17075         3.73053
C         18.44190        12.52522         3.05928
C         17.42258        13.47629         3.61147
C         18.70949        15.44640         2.81518
C         17.52376        14.87317         3.39410
C         18.86992        16.88120         2.61058
C         17.72672        17.79071         3.00408
C         18.68220        19.49643         1.44677
C         17.57567        19.00343         2.18511
C         18.60693        20.80853         0.88009
C         17.36104        21.54159         0.98115
C         18.44014        23.56317         0.05074
C         17.24161        22.84721         0.47550
C         18.26381        24.75773        -0.75299
C         17.01681        25.39993        -0.82042
C         18.03337        27.37653        -1.93241
C         16.92814        26.71782        -1.40507
C         18.04008        28.78177        -2.24339
C         16.82002        29.51433        -2.00026
C         18.09983        31.59499        -2.52626
C         16.86137        30.95893        -2.13139
C         18.06105        33.06445        -2.60437
C         16.83677        33.81620        -2.25457
C         18.10543        35.92575        -1.82450
C         16.84565        35.24356        -2.20201
C         18.16645        37.38802        -1.71630
C         16.86204        38.14428        -1.65483
C         18.28319        40.26039        -1.65169
C         17.00271        39.60247        -2.06118
C         18.29535        41.76923        -1.45796
C         16.89991        42.35900        -1.21085
C         18.18125        44.45643        -0.50283
C         16.90428        43.72688        -0.67302
C         18.19408        45.87840        -0.40785
C         17.02135        46.66419        -0.73006
C         18.14185        48.77172        -0.13940
C         16.95835        48.10075        -0.55920
C         18.14415        50.12189         0.28442
C         16.93783        50.89909         0.07775
C         17.68171        53.09855         0.96824
C         16.91973        52.36041         0.08104
C         18.14159        54.44567         0.96671
C         20.92128         6.83813         3.87998
C         20.98333         8.22406         3.82681
C         19.80270         9.06399         4.29123
C         20.94481        11.03495         3.11384
C         19.73127        10.46513         3.70180
C         20.93622        12.30419         2.60328
C         19.79823        13.18146         2.93752
C         21.03619        15.16074         1.82042
C         19.90184        14.63285         2.61197
C         21.00809        16.50512         1.35035
C         19.90665        17.35661         1.67080
C         20.93621        19.18810         0.39687
C         19.85825        18.68537         1.20735
C         20.86782        20.51438        -0.12262
C         19.72141        21.32387         0.17414
C         20.76594        23.25755        -1.10797
C         19.76465        22.74377        -0.16584
C         20.67294        24.52646        -1.63335
C         19.35136        25.19464        -1.61449
C         20.36948        27.19590        -2.83936
C         19.20094        26.56224        -2.24227
C         20.24710        28.53124        -3.21645
C         19.20595        29.41389        -2.74798
C         20.59593        31.60565        -2.80474
C         19.30615        30.88185        -2.78629
C         20.61733        32.96630        -2.47231
C         19.40942        33.79117        -2.50470
C         20.63768        35.91336        -1.66409
C         19.39250        35.14755        -1.84746
C         20.60028        37.24068        -1.30551
C         19.36837        38.01351        -1.39104
C         20.59724        40.05712        -0.68022
C         19.42195        39.43648        -1.15650
C         20.50579        41.43683        -0.14655
C         19.18114        42.19280        -0.26914
C         20.56758        44.36082        -0.02802
C         19.33985        43.70384        -0.30144
C         20.58536        45.78800         0.03438
C         19.42090        46.53986        -0.16942
C         20.71413        48.75054         0.04595
C         19.42933        48.02706        -0.22410
C         20.65579        50.10443         0.63662
C         19.38064        50.70370         0.81635
C         20.51294        52.64413         1.88353
C         19.36462        51.88984         1.57398
C         20.46975        54.09719         2.06031
C         19.31290        54.91608         1.61454
C         20.57018        57.00735         2.14123
C         19.41381        56.33263         1.72218
C         20.63878        58.40267         2.30852
C         23.11579         3.86025         3.26375
C         21.99144         4.62201         3.56673
C         23.30566         6.67817         3.28162
C         22.05857         6.04244         3.56743
C         23.38153         8.09076         3.26556
C         22.21595         8.84345         3.48162
C         23.45827        10.90103         2.65261
C         22.23125        10.30240         3.24962
C         23.33898        12.11262         1.80126
C         22.05871        12.88708         1.83950
C         23.25689        14.82732         0.80281
C         22.11238        14.32438         1.49361
C         23.24084        16.17848         0.30495
C         22.10805        17.00785         0.57723
C         23.18098        18.89372        -0.61818
C         22.07500        18.36374         0.11966
C         23.09299        20.24196        -1.10107
C         21.96090        21.03146        -0.89248
C         23.08809        23.07291        -1.98904
C         21.79390        22.32317        -1.69407
C         23.05522        24.49118        -2.38442
C         21.73462        25.11957        -2.43701
C         23.38430        27.41992        -3.41964
C         21.47743        26.32263        -3.11409
C         23.36224        28.85738        -3.29586
C         22.21520        29.60456        -3.51521
C         23.25105        31.71324        -2.65661
C         21.97986        31.01681        -3.11103
C         23.11235        32.95521        -1.82826
C         21.81213        33.65612        -1.90262
C         23.21339        35.83454        -1.58527
C         21.89803        35.15747        -1.84997
C         23.14577        37.21032        -0.96775
C         21.83733        37.92688        -0.85544
C         23.09700        40.06941        -0.38837
C         21.84351        39.38825        -0.63590
C         23.09167        41.44762         0.08060
C         21.78107        42.14809         0.20775
C         22.98023        44.27845         0.50946
C         21.76738        43.62292         0.20943
C         23.08135        45.69766         0.57363
C         21.82743        46.45870         0.45988
C         23.21619        48.62498         0.52496
C         21.88981        47.93903         0.49627
C         23.15133        50.03997         1.03339
C         21.81069        50.66896         1.22375
C         22.88612        52.49518         2.56399
C         21.74239        51.93808         1.83292
C         22.85380        53.98368         2.83560
C         21.67099        54.73512         2.35347
C         23.04010        56.84401         2.83134
C         21.79891        56.19773         2.27618
C         22.90595        58.23715         3.32912
C         21.78634        59.06102         2.82622
C         23.08230        61.07894         3.36965
C         21.87358        60.44829         2.97227
C         24.33421         4.46979         2.94748
C         25.67293         6.50457         2.57089
C         24.46276         5.87855         2.95046
C         25.84154         7.91412         2.60438
C         24.73823         8.77359         3.18953
C         25.82872        10.72640         2.04108
C         24.69226        10.11458         2.49328
C         25.80324        12.05451         1.44370
C         24.56571        12.78007         1.35247
C         25.61836        14.51317        -0.02191
C         24.45481        14.02943         0.74321
C         25.51681        15.83828        -0.74063
C         24.34337        16.72106        -0.44656
C         25.46249        18.58654        -1.69778
C         24.31568        18.05098        -0.89316
C         25.43710        20.02110        -2.15695
C         24.19864        20.83260        -1.90434
C         25.53489        22.97502        -2.16817
C         24.23268        22.31738        -2.02645
C         25.53189        24.46189        -2.39899
C         24.26086        25.19719        -2.61382
C         25.71629        27.28642        -2.78455
C         24.40575        26.62630        -2.88914
C         25.85963        28.70870        -2.60409
C         24.64282        29.51725        -2.92913
C         25.65154        31.52808        -1.76657
C         24.59115        30.99093        -2.64780
C         25.40098        32.71573        -1.13983
C         24.36904        33.66734        -1.47085
C         25.70122        35.80103        -1.14096
C         24.46951        35.04847        -1.32836
C         25.67279        37.28707        -1.32633
C         24.37378        38.04651        -1.12892
C         25.59492        40.22585        -0.55968
C         24.33467        39.45363        -0.66947
C         25.59091        41.52156         0.25520
C         24.23078        42.09625         0.55321
C         25.09398        44.20024         1.62013
C         24.11077        43.50335         0.90129
C         25.33626        45.58373         1.50658
C         24.28809        46.33672         0.91191
C         25.69169        48.48730         1.26253
C         24.45287        47.80035         0.74402
C         25.54843        49.90739         1.68525
C         24.35227        50.56990         1.71065
C         25.39091        52.52476         2.97358
C         24.16079        51.68493         2.72242
C         25.35003        53.85481         3.33258
C         24.14236        54.65837         3.16407
C         25.40505        56.72183         3.68989
C         24.18049        56.02432         3.31026
C         25.42783        58.11735         3.80556
C         24.20865        58.92672         3.79415
C         24.22529        60.38095         3.68220
C         26.98715         8.53581         2.15095
C         28.31183        10.64802         1.59236
C         27.14995        10.02909         2.31124
C         28.25753        11.93432         1.08422
C         26.98496        12.63566         0.96434
C         28.12100        14.57562         0.01533
C         26.94161        13.91412         0.30377
C         28.11661        15.86796        -0.71343
C         26.82237        16.46117        -1.15899
C         28.10335        18.54807        -1.95703
C         26.77382        17.85278        -1.72065
C         28.10165        20.01021        -2.38959
C         26.75034        20.69785        -2.54434
C         28.03290        22.92195        -2.59963
C         26.74251        22.18813        -2.58461
C         27.94674        24.23362        -3.06733
C         26.76354        25.03480        -2.98152
C         28.64480        27.53629        -2.62542
C         26.79430        26.42263        -3.11978
C         28.34312        28.82916        -2.14025
C         27.03785        29.41745        -2.21694
C         28.22482        31.62977        -1.56366
C         26.93222        30.75690        -1.45746
C         28.24684        33.06209        -1.43465
C         27.20598        33.80727        -0.88373
C         28.19547        35.99324        -1.15794
C         26.98177        35.21556        -1.05955
C         28.22588        37.36430        -1.05193
C         26.94951        38.08711        -1.18614
C         28.18161        40.16101        -0.30109
C         26.91965        39.53834        -0.78749
C         28.13132        41.40990         0.40338
C         26.89771        41.93841         0.86285
C         28.04824        43.92924         1.80970
C         26.97399        43.06211         1.74882
C         27.88613        45.33999         2.23314
C         26.57031        46.21075         2.05716
C         27.93002        48.33281         2.34320
C         26.77611        47.68659         1.93554
C         28.10231        49.81539         2.02455
C         26.81662        50.68919         1.98079
C         27.89159        52.40924         3.57597
C         26.63096        51.72508         3.07976
C         27.79895        53.83989         3.81085
C         26.59362        54.54366         3.70092
C         26.57844        55.94978         3.87453
C         29.44938        12.62670         0.69150
C         30.59826        14.68972        -0.01849
C         29.40544        13.94918         0.25119
C         30.58551        16.03898        -0.37791
C         29.27856        16.79670        -0.43624
C         30.49582        18.79237        -1.31026
C         29.32557        18.04896        -1.29402
C         30.53484        20.20570        -1.68151
C         29.32054        20.82303        -2.09909
C         30.37897        22.99400        -1.78870
C         29.25720        22.24217        -2.23005
C         30.24643        24.40964        -1.53616
C         29.72643        25.35582        -2.36804
C         30.73902        27.44712        -1.38888
C         29.68315        26.76826        -2.07368
C         30.72813        28.85642        -1.46820
C         29.51972        29.54740        -1.71943
C         30.72283        31.71106        -1.72525
C         29.46616        30.98636        -1.70077
C         30.76916        33.08342        -1.62781
C         29.49379        33.82294        -1.70715
C         30.68353        35.95734        -0.90197
C         29.46409        35.28705        -1.41598
C         30.66931        37.42578        -0.78393
C         29.46640        38.10575        -0.86908
C         30.65422        40.21690        -0.25060
C         29.40672        39.51508        -0.49543
C         30.58879        41.56054         0.28367
C         29.37953        42.06284         0.74221
C         30.52105        44.17409         1.45199
C         29.38931        43.22444         1.73427
C         30.27802        45.50074         1.48986
C         29.16362        46.12940         2.23024
C         30.53323        48.39738         2.49922
C         29.23152        47.61028         2.53204
C         30.48744        49.73921         2.76144
C         29.24128        50.47510         2.78888
C         29.18007        51.73128         3.31661
C         31.76331        16.78287        -0.52570
C         32.89907        18.91042        -0.75470
C         31.72777        18.16239        -0.84250
C         32.97416        20.29887        -1.03387
C         31.74683        20.97544        -1.47680
C         32.83687        23.25628        -1.42727
C         31.64433        22.40444        -1.49855
C         33.08972        24.57289        -0.95280
C         31.97127        25.43534        -0.70154
C         33.25584        27.44213        -1.12991
C         31.97446        26.77851        -1.03853
C         33.32132        28.81765        -1.34988
C         32.04103        29.51567        -1.65150
C         33.29874        31.74296        -1.97975
C         31.99590        30.97458        -1.92958
C         33.20382        33.10156        -1.32465
C         32.02098        33.78402        -1.38042
C         33.21875        36.01295        -0.99777
C         31.96570        35.20269        -0.91316
C         33.20658        37.44051        -0.64037
C         31.90440        38.06772        -0.20210
C         33.16753        40.27486        -0.38128
C         31.88312        39.56023        -0.35095
C         33.14996        41.74142         0.03742
C         31.87710        42.22589         0.64033
C         33.14902        44.40801         1.28676
C         31.87377        43.62060         1.21611
C         33.26260        45.71694         1.72485
C         32.15430        46.65454         1.78510
C         31.84913        47.72960         2.57014
C         34.22478        20.88016        -0.70104
C         35.61767        23.00060        -0.50156
C         34.65422        22.17865        -1.06366
C         35.61314        24.44796        -0.63040
C         34.38831        25.20959        -0.88908
C         35.65327        27.36020        -0.67544
C         34.44333        26.64875        -0.88306
C         35.77920        28.76233        -0.91426
C         34.57958        29.54167        -1.33519
C         35.67052        31.80156        -1.61525
C         34.52127        30.93912        -1.54292
C         35.72327        33.10505        -1.14073
C         34.42108        33.73700        -0.69954
C         35.70863        35.89940        -0.44128
C         34.48666        35.22967        -0.96404
C         35.68705        37.38078        -0.21705
C         34.41714        38.14283        -0.43756
C         35.70397        40.21915         0.18698
C         34.43786        39.53610        -0.30163
C         35.68216        41.75589        -0.02830
C         34.40093        42.40469         0.46477
C         34.36666        43.63808         1.04988
C         36.74938        25.13837        -0.24724
C         38.09417        27.24633         0.03123
C         36.74157        26.60570         0.05024
C         38.21900        28.60360        -0.12441
C         37.05626        29.35008        -0.62009
C         37.97724        31.62468        -0.15923
C         37.30584        30.71959        -0.95058
C         38.11306        33.02887        -0.39405
C         36.96148        33.77383        -0.79105
C         38.16836        35.84390        -0.15266
C         36.98444        35.17192        -0.52277
C         38.14305        37.30557        -0.08573
C         37.00102        38.05222        -0.19346
C         36.99106        39.55675        -0.40329
C         39.54952        29.25557        -0.02051
C         40.76116        31.53585         0.29887
C         39.70212        30.54026         0.43364
C         40.55445        32.89150         0.22489
C         39.32414        33.67233         0.02399
C         39.35232        35.07778         0.04517
O         12.72848        27.97674        -2.24211
O         15.11719        46.57443        -2.18170
O         33.12357        41.40986        -1.37410
O         14.78467        26.41818        -2.40650
O         27.05911        39.13697        -2.19597
O         25.65310        41.52591        -1.22915
O         27.00204        45.64669         3.32726
O         18.84883        25.34855        -3.00360
O         26.58506        21.40396        -3.81578
O         18.91630        17.74640         3.85348
O         22.36269        26.76580        -4.10983
O         22.21168        32.92507        -0.66387
O         25.01038        30.53678        -3.95894
O         35.50433        36.43807         0.92421
O         20.29340        48.55544        -1.32727
O         14.75081        30.32881        -0.08116
O         21.60462        47.24296         1.74853
O         22.49726        37.23157         0.32212
O         20.94007        41.50975         1.26420
O         18.70794        33.68281        -3.77346
O         23.36625        49.71439        -0.40147
O         22.74069        31.92463        -3.99967
O         15.12379        40.38083        -3.51907
O         33.90552        22.72273        -2.13884
O         22.37412        11.98678         0.70123
O         25.54942        48.16275        -0.16060
O         25.78332        23.89934        -1.04592
O         31.15863        46.35000         0.82637
O         22.46913        53.01108         3.87989
O         26.26894        33.10961        -0.10799
O         28.32278        18.93585        -3.34525
O         23.17549        11.08693         4.10585
O         36.82121        31.22009        -2.17244
O         31.23076        35.33370         0.35449
O         12.26776        34.92744        -0.09573
O         22.71089        35.72800        -2.94916
O         30.77383        24.83910        -0.29394
O         23.17852        58.38757         4.73096
O         24.91263        37.77883        -2.47272
O         25.25212        14.60311        -1.45798
O         25.86930        17.78674        -2.86111
O         24.41209        20.16583        -3.19869
O         22.87392        56.70239         1.38016
O         15.33245        37.82306        -3.70385
O         28.55355        49.63817         0.68907
O         29.52488        34.80959        -2.81216
O         17.99584        39.89536        -3.07093
O         27.04208        51.50654         4.43986
O         12.20914        37.77086        -3.58075
O         27.91419        27.01752        -3.69561
O         32.04245        42.41249         2.08691
O          8.07565        32.27348        -1.92317
O         20.25204        14.07019         3.99984
O         33.99349        35.69303        -2.23772
O         38.54582        31.12219         1.02076
O         31.98551        30.04860        -3.07190
O         21.14519        29.01154        -4.17884
O         29.11254        24.87609        -3.54042
O         18.15354        52.35237         2.07246
O         29.41395        46.61334         3.59862
O         27.65985        15.67421        -2.07941
O         15.97148        44.09062         0.37541
O         19.54973        23.60952         1.00031
O         18.60604        35.19616        -0.60208
O         25.84108        43.40786         2.47907
O         23.99335        50.93203         3.96812
H         23.57174        51.54438         4.61513
O         27.44748        10.24952         3.73594
H         26.70861         9.82912         4.25323
O         14.89755        26.44811         1.23416
H         14.98467        25.84954         2.00642
O          9.04126        25.24499        -0.48945
H          9.66336        25.52437        -1.19309
O         35.74957        40.03930         1.62602
H         35.62813        39.08636         1.82693
O         26.86246        30.35364        -0.05243
H         26.75742        31.18043         0.47260
O         10.06227        30.16340         1.78146
H         10.90352        30.66970         1.77935
O         37.07349        39.76865        -1.81079
H         36.82558        40.71128        -1.98696
O         29.53977        42.61218         3.04652
H         30.48229        42.32042         3.11305
O         25.10390         9.06651         4.58486
H         24.47639         9.77232         4.88188
O         33.55317        32.05144        -3.38333
H         33.20291        31.28855        -3.90173
O         18.03832        12.25274         1.66316
H         17.15050        11.83722         1.68579
O         34.28092        33.56479         0.74051
H         34.86605        34.21386         1.18960
O         36.32260        26.69321         1.49125
H         36.37803        27.64018         1.74550
O         21.23913        21.89636        -2.97815
H         21.91329        21.34285        -3.42904
O         16.69582        17.64293         5.18759
H         17.66639        17.66438         5.35964
O         16.46866        38.19584        -0.24109
H         16.79552        37.38602         0.20693
O         10.10318        27.29336         2.35922
H         10.12103        28.27430         2.47878
O         35.79207        42.06982        -1.43030
H         34.90495        41.89795        -1.83469
O         29.01001        17.27952         0.92976
H         29.83126        17.70091         1.26269
O         31.82918        37.82917         1.26096
H         31.67924        36.85714         1.37463
O         18.83069        42.37651        -2.64712
H         18.53931        41.82190        -3.40855
O         18.40814        41.85360         0.90383
H         19.03076        41.84845         1.66729
O         26.97998        51.52430         0.80199
H         27.57441        50.97785         0.20858
O         18.57206         8.36970         4.07239
H         18.44024         8.27485         3.10705
H          4.97368        31.44664         0.40717
H          4.93539        33.84730        -0.03183
H          7.52159        27.18641         0.81294
H          6.25317        29.31537         0.73039
H          6.19025        36.00580        -0.34209
H          7.36807        38.10232        -0.89720
H         10.19454        22.98178         1.67127
H          8.95730        25.11478         1.56641
H          8.58416        40.23665        -1.30815
H          9.81657        42.33663        -1.37721
H         12.94442        19.03238         2.75786
H         11.57064        20.97893         2.16616
H         11.02179        44.43229        -1.28527
H         12.14972        46.40529        -0.57934
H         15.57458        15.27646         4.24688
H         14.30885        17.26309         3.67654
H         13.56864        48.78613        -0.17367
H         14.85143        50.81200        -0.43360
H         17.66330        10.70091         4.14849
H         16.49232        13.07400         4.04046
H         16.32416        52.86449        -0.69512
H         17.54845        55.19434         0.41726
H         19.97747         6.34844         4.16158
H         19.90645         9.17124         5.40767
H         18.52362        56.93091         1.47335
H         19.74657        59.00724         2.08479
H         23.04455         2.76355         3.26265
H         21.03723         4.12962         3.80241
H         23.12312        62.17733         3.34125
H         21.02360        61.07439         2.66622
H         25.20685         3.85170         2.69216
H         26.50946         5.87925         2.22293
H         26.39298        58.62638         3.95016
H         25.18268        60.90856         3.80076
H         27.82344         7.93232         1.76485
H         29.28764        10.14448         1.67322
H         28.73332        54.41084         3.93010
H         27.51026        56.45917         4.16325
H         30.42011        12.12220         0.80683
H         31.56815        14.18410         0.10506
H         31.42338        50.28384         2.96544
H         30.09384        52.19523         3.72297
H         32.73749        16.30156        -0.35319
H         33.81383        18.40123        -0.41594
H         34.27282        46.08535         1.96964
H         32.59638        48.14436         3.26436
H         34.91929        20.25466        -0.11943
H         36.34547        22.56249         0.19704
H         36.56650        42.20430         0.48811
H         35.32174        44.13663         1.28142
H         37.64530        24.56993         0.04503
H         38.95961        26.64061         0.33924
H         39.11380        37.82236        -0.02437
H         37.88647        40.01700         0.11210
H         40.41747        28.69536        -0.39913
H         41.80379        31.18029         0.27786
H         41.46982        33.50790         0.21046
H         40.29040        35.59766         0.29260
