         204
 CSIRO Nanostructure Databank - Neutral Graphene Oxide Data Set
C        -11.09424         0.70123        -0.33802
C         -9.86280         1.44743        -0.24905
C         -8.64285         0.72843        -0.05848
C         -7.40145         1.44474        -0.05664
C         -6.16583         0.75495         0.22148
C         -4.92611         1.41889         0.21181
C         -3.68693         0.69693         0.47405
C         -2.42814         1.41645         0.37076
C         -1.17490         0.68571         0.51825
C          0.07266         1.37023         0.47186
C          1.29341         0.71079         0.75202
C          2.50196         1.45669         0.84393
C          3.74109         0.76186         1.21730
C          5.03710         1.50335         1.12559
C          6.31167         0.72307         0.79291
C          7.47206         1.48119         0.30458
C          8.63161         0.76558        -0.11900
C          9.85267         1.50435        -0.36309
C         11.07652         0.74486        -0.58956
C         -9.84034         2.84857        -0.35348
C         -8.61591         3.56169        -0.37482
C         -7.39548         2.83005        -0.27929
C         -6.10037         3.51229        -0.60774
C         -4.87698         2.81684        -0.07793
C         -3.66832         3.51607        -0.04381
C         -2.43971         2.78711         0.12097
C         -1.18398         3.51531        -0.12914
C          0.12421         2.78203         0.07847
C          1.33281         3.57192         0.35038
C          2.52916         2.87370         0.66611
C          3.76026         3.61597         0.73816
C          5.00840         2.94068         0.82334
C          6.23536         3.62013         0.57594
C          7.45352         2.88822         0.32260
C          8.64983         3.61801        -0.01333
C          9.85084         2.88294        -0.28961
C         -8.56904         4.98826        -0.44879
C         -7.35360         5.69906        -0.38697
C         -6.10644         4.99388        -0.35943
C         -4.88650         5.67839        -0.30144
C         -3.64022         4.95671        -0.21200
C         -2.42347         5.66849        -0.17901
C         -1.16911         4.98388        -0.07495
C          0.04392         5.67728         0.00985
C          1.29608         4.98007         0.25541
C          2.50024         5.71851         0.49546
C          3.71543         5.04491         0.69013
C          5.00361         5.76838         0.81736
C          6.24127         5.03554         0.49334
C          7.42799         5.74449         0.18187
C          8.62139         5.01721        -0.06287
C         -7.32819         7.13027        -0.32706
C         -6.13082         7.83111        -0.29349
C         -4.87489         7.11927        -0.30968
C         -3.66191         7.81771        -0.36514
C         -2.41335         7.10200        -0.33267
C         -1.19623         7.78814        -0.42009
C          0.03874         7.11651        -0.16095
C          1.22382         7.85695        -0.02602
C          2.43008         7.19757         0.49959
C          3.71595         8.00957         0.56958
C          5.02254         7.28549         0.68700
C          6.23766         7.91386         0.12954
C          7.39172         7.17232        -0.01155
C         -6.09366         9.27702        -0.23278
C         -4.91702         9.95965        -0.24934
C         -3.64563         9.27172        -0.37422
C         -2.45889         9.95164        -0.50967
C         -1.19565         9.22256        -0.88128
C          0.07541         9.95342        -0.57400
C          1.23849         9.28962        -0.24682
C          2.50981         9.99137        -0.27099
C          3.70726         9.36910        -0.01794
C          4.97902         9.98665        -0.31900
C          6.15897         9.30017        -0.26845
C        -11.10430        -0.66419        -0.30582
C         -9.88656        -1.41790        -0.14017
C         -8.65787        -0.69755         0.02652
C         -7.45988        -1.41695         0.27823
C         -6.24840        -0.65324         0.61509
C         -4.95006        -1.41455         0.83348
C         -3.69127        -0.67176         0.69488
C         -2.45273        -1.41430         1.11337
C         -1.17881        -0.70463         0.74687
C          0.03465        -1.44527         0.72526
C          1.30586        -0.73866         0.75581
C          2.51563        -1.42889         0.73403
C          3.77821        -0.76484         1.09897
C          5.05889        -1.42738         0.74617
C          6.22126        -0.73220         0.52111
C          7.43078        -1.40198         0.02140
C          8.60505        -0.63550        -0.26102
C          9.74035        -1.30047        -1.00444
C         11.04930        -0.58287        -0.81830
C         -9.86558        -2.81619        -0.14241
C         -8.65103        -3.54078         0.00181
C         -7.42809        -2.82243         0.25506
C         -6.17916        -3.54715         0.37932
C         -4.95795        -2.87221         0.60632
C         -3.71088        -3.56906         0.57608
C         -2.47465        -2.88481         0.75349
C         -1.25217        -3.59010         0.71897
C         -0.01021        -2.85679         0.74646
C          1.22002        -3.60561         0.48110
C          2.53538        -2.85456         0.41974
C          3.77416        -3.63206         0.51909
C          5.10359        -2.94425         0.74750
C          6.10415        -3.49687        -0.25747
C          7.42523        -2.78053        -0.21534
C          8.62871        -3.49963        -0.58094
C          9.79579        -2.78695        -0.81346
C         -8.61936        -4.94622        -0.12311
C         -7.40309        -5.66319        -0.06825
C         -6.17395        -4.96348         0.17879
C         -4.94342        -5.68312         0.19609
C         -3.71093        -4.98465         0.37313
C         -2.47904        -5.70463         0.37688
C         -1.24231        -5.01432         0.53633
C         -0.00756        -5.76478         0.52630
C          1.27860        -5.05779         0.88458
C          2.52368        -5.76139         0.39669
C          3.75463        -4.99997         0.30867
C          5.00364        -5.71068         0.05601
C          6.18029        -5.00209        -0.16010
C          7.41096        -5.67584        -0.46458
C          8.58903        -4.93691        -0.65508
C         -7.36784        -7.06514        -0.30341
C         -6.16552        -7.77530        -0.29707
C         -4.93590        -7.09521        -0.01921
C         -3.70764        -7.82123         0.03148
C         -2.50467        -7.12890         0.27369
C         -1.25639        -7.86759         0.44852
C          0.00959        -7.13513         0.43701
C          1.28747        -7.93077         0.63992
C          2.53345        -7.13578         0.29515
C          3.75619        -7.83535        -0.01888
C          4.97307        -7.13703        -0.10854
C          6.20241        -7.82278        -0.42376
C          7.38587        -7.10501        -0.56614
C         -6.12095        -9.18542        -0.60718
C         -4.94219        -9.86593        -0.65123
C         -3.68552        -9.23288        -0.31392
C         -2.49219        -9.92763        -0.42572
C         -1.23750        -9.37614         0.06782
C          0.06579        -9.93079        -0.31886
C          1.25288        -9.28647        -0.05809
C          2.50010        -9.91593        -0.37538
C          3.71977        -9.25106        -0.29557
C          4.96379        -9.92712        -0.57489
C          6.14881        -9.25266        -0.61977
O         -0.42517         2.99384        -1.28295
O          1.79120        -3.25805        -0.81120
O         -2.48966        -1.37681         2.59687
H         -3.41447        -1.56164         2.87196
O         -5.98453         3.37783        -2.09082
H         -6.76346         3.83330        -2.47716
O          5.56200        -3.20625        -1.58948
H          6.07195        -3.73049        -2.24209
O          5.96992         1.11483         2.17209
O          3.67633        -0.08894         2.40296
O          9.40376        -1.12259        -2.44753
H          8.52279        -1.53273        -2.58538
O          5.18020         6.64828         1.98596
O          5.56795        -3.32390         2.07126
H          5.03772        -2.83602         2.73632
O         -5.75763        -0.95379         1.98200
O         -1.29412        -8.92694         1.47490
O          2.88412         7.85309         1.74975
O         -1.23441         9.15346        -2.37490
H         -2.03314         8.63399        -2.61222
O          1.34442        -8.17627         2.08421
H          0.49813        -8.63619         2.30907
O          1.34622        -5.07597         2.34253
H          1.38803        -6.02278         2.61519
H         11.98184        -1.14518        -0.97593
H         12.03421         1.28485        -0.53549
H         10.78204         3.44160        -0.46780
H          9.53859         5.56699        -0.32162
H          8.30332         7.66525        -0.38285
H          7.09158         9.79962        -0.57022
H          4.97207        11.03240        -0.66023
H          2.51116        11.02563        -0.64831
H          0.10509        11.03541        -0.77368
H         -2.45724        11.05216        -0.53605
H         -4.91137        11.05886        -0.20844
H         -7.04851         9.82027        -0.17380
H         -8.28219         7.67879        -0.31630
H         -9.51530         5.54845        -0.48317
H        -10.78706         3.40021        -0.45419
H        -12.03473         1.25771        -0.46469
H        -12.05212        -1.21357        -0.40492
H        -10.80299        -3.37308        -0.29099
H         -9.55520        -5.49060        -0.31884
H         -8.30883        -7.59332        -0.51882
H         -7.06589        -9.69915        -0.83783
H         -4.92954       -10.93381        -0.91461
H         -2.48142       -10.92041        -0.90075
H          0.07980       -10.89381        -0.85335
H          2.48284       -10.96801        -0.70018
H          4.93737       -11.01161        -0.75762
H          7.08418        -9.78843        -0.83894
H          8.31933        -7.63759        -0.80349
H          9.52505        -5.47053        -0.87809
H         10.71616        -3.32091        -1.09529
