         598
 CSIRO Nanostructure Databank - Neutral Graphene Oxide Data Set
C         24.72834        68.76424         5.12815
C         24.43194        70.03802         5.66413
C         24.21563        70.41438         6.98864
C         25.38002        72.62782         6.88878
C         24.47451        71.74318         7.44221
C         26.25017        65.30610         2.20851
C         26.23509        66.67511         2.44189
C         25.47187        67.19738         3.50449
C         26.23210        69.56291         3.13844
C         25.41902        68.54355         3.91298
C         26.67327        70.83508         3.82323
C         25.81095        71.42531         4.75927
C         27.54730        72.81593         5.63364
C         26.22631        72.33980         5.74921
C         28.04737        61.30151        -0.08288
C         28.10547        62.73162         0.17901
C         27.13472        63.33346         1.00680
C         28.23894        65.51096         0.77554
C         27.17723        64.71075         1.29079
C         28.26555        66.93535         1.02538
C         26.97254        67.58811         1.47472
C         28.34619        69.82906         1.63377
C         27.11012        69.02716         2.01809
C         28.67803        71.09628         2.39319
C         27.91567        71.47725         3.60571
C         29.73640        72.99893         4.60983
C         28.37135        72.45521         4.55184
C         30.17663        57.10501        -1.06860
C         30.12166        58.44419        -1.33747
C         28.81533        59.19974        -1.23075
C         30.07892        61.41436        -1.45823
C         28.99346        60.64275        -0.80260
C         30.14936        62.89190        -1.23524
C         29.15347        63.51730        -0.34728
C         30.44865        65.63091        -0.31602
C         29.26921        64.90176        -0.01117
C         30.63163        66.88204         0.40934
C         29.41772        67.63686         0.79671
C         30.87597        69.57270         1.43806
C         29.49611        69.15418         0.84123
C         30.97411        71.07779         1.45964
C         29.96652        71.75177         2.04874
C         31.96547        73.67372         3.71747
C         30.56409        73.28556         3.56849
C         32.70847        52.79723        -0.96899
C         32.62533        54.15062        -1.19653
C         31.42707        54.93946        -0.98803
C         32.55999        56.98331        -1.79401
C         31.35391        56.28555        -1.28134
C         32.56450        58.45487        -2.04515
C         31.27219        59.19198        -1.91943
C         32.62169        61.43759        -1.98215
C         31.31056        60.69501        -1.93688
C         32.65021        62.81755        -1.86532
C         31.42448        63.62007        -1.57255
C         32.83697        65.87564        -1.36862
C         31.52632        65.08285        -1.17510
C         33.11409        66.96360        -0.34750
C         31.99648        67.56510         0.40657
C         33.37861        69.56318         0.92210
C         32.05019        68.97510         0.70775
C         33.47586        71.03859         1.21012
C         32.17287        71.75588         0.90835
C         33.76221        74.06938         1.82497
C         32.86231        73.71226         2.73185
C         35.25603        48.51926        -1.02422
C         35.22456        49.92655        -1.13734
C         33.99368        50.67157        -1.00872
C         35.16945        52.78615        -1.41226
C         33.94131        52.04741        -1.16217
C         35.12939        54.16387        -1.56028
C         33.81789        54.84202        -1.82174
C         35.00300        57.04265        -1.43874
C         33.84497        56.31626        -1.55555
C         34.98624        58.49616        -1.60617
C         33.83956        59.20137        -1.93061
C         35.08127        61.29753        -2.30091
C         33.86156        60.65538        -2.11838
C         35.17227        62.77092        -2.33464
C         33.90907        63.58416        -2.07599
C         35.28803        65.58468        -1.49720
C         34.05570        64.98740        -1.57174
C         35.46589        66.96732        -1.04434
C         34.34694        67.56673        -0.34408
C         35.89058        69.55173         0.26740
C         34.59508        68.79765         0.44968
C         36.01399        70.99249         0.72329
C         34.80066        71.76476         1.23795
C         35.81180        73.94766         0.56212
C         34.80156        73.26501         1.16273
C         37.74420        44.17208        -0.96241
C         37.67144        45.61366        -1.15077
C         36.51157        46.34316        -1.01187
C         37.65271        48.51178        -1.42100
C         36.45756        47.78845        -1.16426
C         37.64509        49.91371        -1.51546
C         36.44253        50.63579        -1.36839
C         37.62613        52.79486        -1.57116
C         36.44598        52.08656        -1.44649
C         37.65803        54.29170        -1.72718
C         36.32388        54.95488        -1.50003
C         37.44359        57.07714        -0.82908
C         36.26740        56.32426        -1.32342
C         37.46535        58.55351        -1.06793
C         36.30410        59.13317        -1.81856
C         37.70169        61.24487        -2.51749
C         36.35003        60.53554        -2.36740
C         37.67762        62.72513        -2.23126
C         36.49195        63.39477        -2.06000
C         37.83865        65.52864        -1.77917
C         36.53088        64.79696        -1.63907
C         37.75537        67.01266        -2.03469
C         36.67213        67.65041        -1.18944
C         37.99091        69.73722        -1.09710
C         36.87117        68.99535        -0.71237
C         38.12054        71.15119        -0.78168
C         37.16812        71.79333         0.15842
C         37.99640        74.03532        -0.73642
C         37.05334        73.30708         0.09678
C         40.14042        39.97283        -0.31317
C         40.19096        41.27927        -0.74164
C         38.91919        41.95101        -1.23995
C         40.17498        44.14871        -1.43873
C         38.89796        43.46303        -1.13680
C         40.21259        45.61557        -1.39521
C         38.91505        46.29382        -1.57863
C         40.19427        48.51119        -1.53231
C         38.91018        47.79050        -1.69206
C         40.17933        49.89287        -1.55423
C         38.91819        50.61520        -1.79543
C         40.18627        52.84594        -1.43291
C         38.92399        52.12278        -1.77176
C         40.13268        54.26126        -1.12487
C         38.80112        54.90267        -0.93090
C         39.97048        57.12066        -0.22684
C         38.70918        56.33421        -0.50566
C         39.99277        58.65986        -0.47346
C         38.73088        59.35263        -0.93809
C         40.12725        61.28312        -1.93053
C         38.80584        60.68001        -1.61033
C         40.17372        62.60188        -2.33628
C         38.96160        63.38918        -2.28020
C         40.21637        65.51962        -2.48239
C         39.02429        64.79981        -2.26011
C         40.26314        66.95147        -2.29340
C         39.10712        67.66999        -1.95230
C         40.22241        69.83198        -2.17843
C         39.12059        69.09548        -1.76956
C         40.11478        71.32918        -2.32330
C         39.10610        71.92445        -1.36907
C         40.26272        74.10459        -1.65943
C         39.11512        73.37597        -1.25370
C         42.42452        35.92242         1.42727
C         42.49892        37.22125         0.88515
C         41.30506        37.91772         0.46323
C         42.62229        39.86312        -0.29544
C         41.32878        39.21128        -0.01774
C         42.64240        41.31401        -0.53795
C         41.46597        41.97467        -0.81783
C         42.67536        44.21425        -0.97492
C         41.48414        43.39313        -1.27028
C         42.63942        45.58798        -1.01278
C         41.40780        46.32884        -1.28688
C         42.59094        48.54343        -1.04378
C         41.41424        47.77536        -1.34597
C         42.60291        49.92408        -1.03914
C         41.46210        50.66987        -1.68027
C         42.63420        52.84822        -1.11386
C         41.35855        52.13219        -1.29684
C         42.60094        54.35310        -0.94843
C         41.27776        54.99970        -0.86053
C         42.42641        56.89397         0.11940
C         41.23237        56.33840        -0.31314
C         42.45744        58.93882        -0.25777
C         41.27209        59.33314        -0.83527
C         42.70033        61.20000        -1.93899
C         41.32751        60.46167        -1.79108
C         42.72496        62.61752        -2.32539
C         41.45360        63.24687        -2.72837
C         42.73326        65.54771        -2.91477
C         41.42134        64.81327        -2.89611
C         42.72287        67.03471        -2.77651
C         41.49825        67.66702        -2.54047
C         42.68853        69.91348        -2.94403
C         41.39293        69.12502        -2.70775
C         42.64884        71.40648        -2.79548
C         41.43984        72.05917        -2.29031
C         42.71725        74.15701        -1.97584
C         41.46927        73.44106        -2.02014
C         44.67303        33.30607         2.89710
C         43.52160        33.93470         2.42447
C         44.83596        35.94454         1.91752
C         43.57875        35.26285         1.91815
C         44.91835        37.27298         1.41300
C         43.76152        37.87807         0.85513
C         45.10845        39.97927         0.44703
C         43.90020        39.17052         0.17991
C         45.13882        41.34239         0.11599
C         43.96231        41.99702        -0.54383
C         45.05845        44.26643        -0.06441
C         43.94252        43.49244        -0.68487
C         45.13912        45.70116        -0.37887
C         43.82182        46.36062        -0.54812
C         45.05708        48.59250        -0.39009
C         43.78447        47.84160        -0.52966
C         44.98172        49.92120        -0.12901
C         43.70016        50.63792        -0.34639
C         45.01201        52.88343        -0.13142
C         43.75362        52.15262        -0.40747
C         45.02291        54.28099        -0.17373
C         43.80834        55.01269        -0.42034
C         44.94619        57.18550        -0.07287
C         43.74209        56.36450        -0.10754
C         44.95930        58.56203        -0.35558
C         43.78210        59.34611        -0.66292
C         45.11090        61.32746        -1.23778
C         43.87576        60.59150        -1.30053
C         45.05752        62.73910        -1.53707
C         43.92061        63.35179        -2.12032
C         45.25643        65.57446        -2.37995
C         43.99770        64.76979        -2.59612
C         45.25201        67.08101        -2.58513
C         43.95664        67.79418        -2.77730
C         45.17684        69.97853        -2.53184
C         43.95453        69.19510        -2.74257
C         45.20262        71.36076        -2.58316
C         43.95970        72.15539        -2.72210
C         45.17788        74.18726        -1.90968
C         43.94369        73.53640        -2.18199
C         45.90586        33.95943         2.88832
C         47.25176        35.97730         2.38194
C         46.01571        35.29068         2.40207
C         47.34660        37.31550         1.92670
C         46.16819        37.97234         1.43951
C         47.45311        40.07493         1.20678
C         46.24227        39.34385         1.03232
C         47.46743        41.45365         0.90008
C         46.31948        42.08113         0.38104
C         47.56261        44.32350         0.36363
C         46.29653        43.56160         0.37057
C         47.55848        45.70931         0.07861
C         46.31042        46.39140        -0.23727
C         47.57604        48.56035        -0.05373
C         46.36222        47.85952        -0.59901
C         47.48401        49.96571         0.39123
C         46.15234        50.65326         0.42698
C         47.39510        52.86666         0.84300
C         46.02247        52.14836         0.73342
C         47.38986        54.37151         0.66656
C         46.17683        55.06862         0.20987
C         47.44541        57.20586         0.21983
C         46.19627        56.46001         0.08966
C         47.48990        58.56389        -0.08435
C         46.28771        59.17268        -0.77625
C         47.57752        61.41610        -0.84491
C         46.26770        60.67768        -0.80706
C         47.35658        62.84772        -0.35017
C         46.17995        63.55457        -1.03238
C         47.57995        65.68702        -1.34524
C         46.26728        64.99093        -1.44188
C         47.63843        67.13902        -1.70237
C         46.41145        67.87912        -2.10163
C         47.61294        70.03711        -1.96637
C         46.40951        69.25702        -2.20493
C         47.67860        71.40398        -2.11845
C         46.49283        72.15926        -2.65739
C         47.62295        74.23452        -1.79923
C         46.42050        73.55965        -2.07023
C         48.58047        38.01636         1.94906
C         49.89608        40.07675         1.63724
C         48.66519        39.39324         1.63163
C         49.96960        41.52946         1.58310
C         48.64733        42.28025         1.23903
C         49.98880        44.35447         0.70529
C         48.75580        43.66071         0.70997
C         49.99158        45.73710         0.37831
C         48.78641        46.42853         0.12163
C         50.01210        48.64708         0.22681
C         48.77846        47.89151         0.06166
C         49.95819        50.06065         0.30636
C         48.72941        50.75381         0.44451
C         49.90197        52.88867         0.74967
C         48.69110        52.15151         0.63766
C         49.82952        54.33404         1.07411
C         48.65244        55.11090         0.66967
C         49.88255        57.25119         0.78473
C         48.66627        56.50477         0.58306
C         49.87806        58.68337         0.61637
C         48.69685        59.32699         0.11018
C         49.84277        61.48225         0.29460
C         48.71787        60.73367        -0.09438
C         49.78241        62.96067         0.29086
C         48.65065        63.63247        -0.34522
C         49.97367        65.85468        -0.41410
C         48.62823        65.07292        -0.46505
C         50.09841        67.16574        -1.05121
C         48.81694        67.90485        -1.20180
C         50.12721        70.00209        -1.75354
C         48.82235        69.35710        -1.45906
C         50.12815        71.46921        -1.70813
C         48.90542        72.13884        -1.86984
C         50.11649        74.26265        -1.64372
C         48.89118        73.57695        -1.80007
C         51.19919        42.27832         1.37861
C         52.42539        44.38130         1.20196
C         51.22299        43.65952         1.09173
C         52.57762        45.74300         0.71861
C         51.26212        46.47940         0.25281
C         52.48894        48.63451         0.37928
C         51.26704        47.95371         0.28135
C         52.52470        50.08113         0.12592
C         51.19167        50.85159         0.16822
C         52.38358        53.00406         0.74215
C         51.16931        52.28004         0.56166
C         52.38015        54.38486         1.05689
C         51.11253        55.10667         1.21784
C         52.31722        57.25382         1.21389
C         51.10133        56.56972         1.05114
C         52.25463        58.73243         1.48617
C         51.05552        59.43309         0.87001
C         52.29199        61.60195         0.85572
C         51.05473        60.84062         0.71694
C         52.37946        62.95592         0.54120
C         51.12421        63.71642         0.39259
C         52.53659        65.72034        -0.48868
C         51.18904        65.02089        -0.31096
C         52.54455        67.16222        -0.75647
C         51.32873        67.80331        -1.14765
C         52.63481        69.99730        -1.34114
C         51.39930        69.22329        -1.58247
C         52.58218        71.40534        -1.48478
C         51.36551        72.14574        -1.59741
C         52.59714        74.29174        -1.45299
C         51.36445        73.58997        -1.58200
C         53.68280        46.59821         1.11625
C         54.87412        48.73626         1.10840
C         53.69741        47.96758         0.83301
C         54.95959        50.12519         0.92356
C         53.79172        50.84040         0.37150
C         54.87417        52.98028         1.23897
C         53.70908        52.34569         0.60883
C         54.77785        54.38148         1.62455
C         53.55880        55.12593         1.28266
C         54.80086        57.26809         1.46647
C         53.54435        56.54509         1.38525
C         54.75735        58.70996         1.26388
C         53.57351        59.40408         1.20781
C         54.82042        61.64087         1.20013
C         53.53237        60.88537         1.23153
C         54.85094        63.06894         0.84296
C         53.63077        63.70793         0.50045
C         54.87923        65.84652         0.31745
C         53.69965        65.07271         0.12384
C         54.87663        67.23124        -0.01619
C         53.74143        67.88981        -0.57490
C         55.02748        70.01625        -0.72990
C         53.80177        69.31215        -0.89355
C         55.12364        71.40080        -1.21021
C         53.83844        72.15633        -1.56259
C         55.07209        74.29444        -1.25709
C         53.83737        73.62780        -1.42151
C         56.11441        50.87009         1.24546
C         57.30412        53.04004         1.64686
C         56.08991        52.28845         1.36590
C         57.32798        54.39777         1.78231
C         56.06897        55.16239         1.87974
C         57.30119        57.31512         1.55927
C         56.03587        56.61574         1.61838
C         57.32335        58.71267         1.32784
C         56.05414        59.39966         1.02438
C         57.33587        61.63211         1.17991
C         56.08227        60.89384         0.95196
C         57.30825        63.04547         1.18899
C         56.07127        63.75822         0.91580
C         57.27560        65.90059         1.03019
C         56.08927        65.18784         0.77608
C         57.22410        67.37372         1.01809
C         56.01627        68.05583         0.41399
C         57.40413        70.11281        -0.07917
C         56.16052        69.42646        -0.12741
C         57.44823        71.49336        -0.46467
C         56.30898        72.18541        -0.86289
C         57.51039        74.33677        -0.80350
C         56.30324        73.62156        -1.02617
C         58.62390        55.14033         2.01375
C         59.73436        57.34565         1.72254
C         58.54661        56.63093         1.74259
C         59.76369        58.76445         1.58311
C         58.52460        59.45537         1.38268
C         59.74931        61.61994         1.51556
C         58.53582        60.90199         1.32613
C         59.71666        63.03264         1.59882
C         58.51880        63.76255         1.39967
C         59.70352        65.93115         1.50533
C         58.51458        65.21955         1.33977
C         59.76632        67.40349         1.39199
C         58.49851        68.16072         1.09980
C         59.85357        70.08936         0.37922
C         58.60349        69.47659         0.43251
C         59.98503        71.44541        -0.18725
C         58.73583        72.19703        -0.56593
C         59.95326        74.33703        -0.34705
C         58.73943        73.67636        -0.57041
C         60.97481        59.49022         1.66271
C         62.22250        61.61708         1.74333
C         61.00272        60.90083         1.64900
C         62.25399        63.02610         1.83925
C         60.96110        63.73476         1.95406
C         62.24079        65.94172         1.67425
C         60.95596        65.25943         1.88165
C         62.26800        67.32374         1.34232
C         61.05947        68.05772         1.13032
C         62.33641        70.11765         0.69944
C         61.08032        69.42161         0.77080
C         62.38648        71.53740         0.43015
C         61.19441        72.22530         0.10391
C         62.36213        74.34544         0.25221
C         61.16742        73.63956        -0.03317
C         63.43661        63.77142         1.89554
C         64.68350        65.90501         1.76092
C         63.45575        65.20397         1.81002
C         64.73332        67.30040         1.53511
C         63.51213        68.01152         1.27746
C         64.78688        70.09558         0.98825
C         63.53692        69.40888         0.99950
C         64.82427        71.47672         0.64883
C         63.62441        72.25066         0.46489
C         64.71764        74.52964         0.85336
C         63.59413        73.69931         0.46489
C         65.96065        68.00992         1.53689
C         67.24671        70.11046         1.33745
C         66.01655        69.39470         1.27009
C         67.30537        71.47011         0.96980
C         66.10624        72.03214         0.44974
C         67.24596        74.54569         1.28888
C         66.04251        74.15106         0.65609
C         68.44512        72.32574         1.15300
C         68.38280        73.71136         1.32893
O         48.09564        66.09797        -2.64379
O         49.05455        65.85059         0.71053
O         38.82895        46.95503        -2.90103
O         27.92731        71.11043         1.09344
O         54.16974        61.38713         2.48907
O         32.11827        72.72151         0.16432
O         51.87064        50.52534        -1.09411
O         50.81435        69.43776        -2.92231
O         56.19629        67.96535         1.88350
O         34.15867        71.30917         2.46586
O         38.97018        51.39086        -3.06523
O         47.33735        53.71696         2.02021
O         24.45724        71.08089         4.71514
O         37.41330        65.06460        -0.47064
O         45.28528        44.02128         1.36568
O         36.50200        69.91036         1.55546
O         50.35061        54.67130         2.40765
O         56.07268        60.10227        -0.28663
O         37.02579        58.02492         0.21919
O         51.90456        64.91971        -1.56867
O         34.17978        68.70957         1.83487
O         46.66080        49.99667         1.65143
O         25.86675        69.75217         1.73902
O         45.68233        64.66328        -0.14759
O         59.03365        68.13169         2.46363
O         42.40189        58.08568         0.85383
O         50.25629        63.61979         1.53697
O         41.31464        63.90426        -4.01864
O         40.89767        43.57233        -2.60344
O         43.22316        51.44880         0.77969
O         34.44591        63.41096        -3.43770
O         41.84372        69.51623        -4.06547
O         43.48655        47.08694         0.71519
O         39.87371        58.08496         0.85238
O         66.21331        73.15365        -0.34940
O         59.58142        71.57381        -1.60500
O         55.23254        54.71033         2.99333
O         43.49053        39.13605        -1.23410
O         36.41127        59.36589        -3.26816
O         54.71917        71.62786        -2.60433
O         30.97910        59.93913        -3.15509
O         31.08362        64.67554        -2.53024
O         32.49188        57.50632        -3.18189
O         37.79468        72.59359         1.19791
O         52.17242        45.90590        -0.69756
O         48.60324        68.84260        -0.08623
O         54.07074        51.77742        -0.70525
O         42.13451        60.30412        -2.98487
O         38.47023        60.60665        -0.19447
O         31.57684        66.70824         1.60713
O         42.96086        53.70794        -2.23813
O         49.07627        42.16640         2.59981
O         29.55190        62.33841        -2.46940
O         43.56375        64.99078        -3.96898
O         45.72189        66.13828        -3.62348
O         60.86389        64.54138         3.16922
O         38.47841        55.23637         0.44995
O         44.35200        42.64422        -1.81403
O         30.08977        73.12935         2.24840
O         43.24921        72.04343        -3.99799
O         29.42753        69.61137        -0.51988
H         28.82757        70.39256        -0.54249
O         45.41525        52.21822         2.04299
H         45.83218        51.51807         2.59441
O         37.33935        67.13256        -3.43254
H         37.41328        68.07296        -3.69980
O         33.63189        54.73813        -3.28307
H         33.08618        55.50109        -3.58054
O         47.00159        62.70719         1.04500
H         46.70919        63.58947         1.36676
O         59.69808        54.54955         1.27496
H         59.51724        54.66493         0.31985
O         30.91385        69.08975         2.80860
H         31.27201        68.16461         2.77447
O         32.67428        66.63333        -2.60287
H         32.21978        66.03628        -3.24400
O         38.00763        54.56354        -3.12145
H         37.42077        54.02693        -3.69602
O         46.73339        72.36805        -4.08680
H         46.72352        71.49311        -4.52953
O         46.47165        58.78857        -2.20538
H         45.65937        59.05919        -2.68730
O         38.14654        61.09513        -3.87901
H         37.68632        60.31691        -4.26838
O         46.53212        47.89126        -2.06877
H         47.37706        47.44125        -2.28507
O         26.15033        67.66554         0.28478
H         25.49022        68.38021         0.44184
O         52.04059        58.85745         2.93591
H         52.79951        58.43511         3.39159
O         41.74835        50.70107        -3.12830
H         40.91622        51.00785        -3.56449
O         47.98355        61.49523        -2.23880
H         47.91506        60.59049        -2.61785
O         38.79699        41.63564        -2.64125
H         39.52471        42.11319        -3.10418
O         28.22425        59.22017        -2.54160
H         28.87829        59.63718        -3.14977
O         39.60278        71.54422        -3.68917
H         40.27149        71.15980        -4.30241
H         25.60909        73.54166         7.45893
H         27.94474        73.49625         6.40060
H         30.10688        73.22139         5.62263
H         32.32488        73.79557         4.75669
H         33.77823        75.14270         1.54891
H         35.77222        75.04731         0.52831
H         37.90424        75.12739        -0.82778
H         40.27183        75.19627        -1.52745
H         42.69752        75.20688        -1.64711
H         45.14944        75.22000        -1.52827
H         47.58210        75.30244        -1.53335
H         50.10694        75.36202        -1.59360
H         52.57660        75.38957        -1.37868
H         55.07361        75.39510        -1.24487
H         57.49268        75.43637        -0.83726
H         59.98101        75.43634        -0.38350
H         62.33583        75.44566         0.26084
H         64.49250        75.47940         1.36161
H         67.28123        75.50480         1.82512
H         24.44094        67.87339         5.70875
H         23.93632        69.65422         7.73306
H         24.05178        72.01810         8.42197
H         25.58960        64.64819         2.79421
H         24.90364        66.47080         4.10771
H         27.19832        60.74188         0.33908
H         26.32789        62.71754         1.42974
H         29.27551        56.60948        -0.67319
H         28.10703        58.67013        -0.54638
H         31.82505        52.24677        -0.60757
H         30.53846        54.43129        -0.58009
H         34.31660        47.97736        -0.83736
H         33.06961        50.11553        -0.78806
H         36.80887        43.63552        -0.73698
H         35.58039        45.82313        -0.73834
H         39.16576        39.46880        -0.22513
H         38.03002        41.51144        -0.72182
H         41.45477        35.40394         1.45805
H         40.33709        37.41532         0.61055
H         44.60914        32.27785         3.28024
H         42.55902        33.40385         2.43447
H         46.80446        33.44672         3.26003
H         48.15548        35.47057         2.75183
H         49.48542        37.48939         2.28565
H         50.83105        39.50304         1.71721
H         52.15484        41.73807         1.44797
H         53.27904        43.91359         1.71444
H         54.52454        46.14980         1.66384
H         55.75443        48.20341         1.49866
H         57.03457        50.33291         1.52001
H         58.25797        52.49086         1.64949
H         58.88963        55.01180         3.10174
H         60.68220        56.80370         1.85714
H         61.91896        58.93855         1.78473
H         63.16984        61.05773         1.75584
H         64.40106        63.24202         1.89942
H         65.62382        65.35045         1.89722
H         66.89235        67.46714         1.75590
H         68.15389        69.59037         1.67684
H         69.40114        71.83627         1.39367
H         69.30940        74.18328         1.69427
