         244
 CSIRO Nanostructure Databank - Neutral Graphene Oxide Data Set
C          1.30424         2.29923        -1.07059
C          1.18009         3.50137        -0.42278
C          2.52821         1.60134        -1.08684
C          2.31077         4.10549         0.36369
C          1.17362         6.36007         0.16595
C          1.17580         7.74681         0.28104
C          2.36596         5.62911         0.25996
C          2.37377         8.45277         0.44580
C          1.13535        10.71192         0.60696
C          1.18779        12.06909         0.62070
C          2.35675         9.91014         0.71180
C          2.42137        12.80792         0.44251
C          1.22981        15.01446         0.49430
C          1.23632        16.42417         0.43973
C          2.39368        14.26794         0.34387
C          2.42163        17.13797         0.27084
C          2.43370        18.58053         0.20858
C          3.69547         2.18741        -0.52216
C          3.63625         3.46618         0.05555
C          4.92910         1.45311        -0.53412
C          4.85711         4.05749         0.71336
C          3.58472         6.32613         0.40640
C          3.60848         7.75033         0.44443
C          4.84101         5.59537         0.70436
C          4.87571         8.47667         0.31306
C          3.68130        10.67625         0.51801
C          3.60607        12.11265         0.24971
C          4.88273         9.90434         0.16571
C          4.79118        12.77429        -0.40441
C          3.64597        14.96773         0.12322
C          3.66198        16.42419         0.13168
C          4.80775        14.26245        -0.14060
C          4.86296        17.13621         0.00655
C          3.59790        19.27524         0.08906
C          4.87497        18.59110         0.06239
C          6.13686         2.05313        -0.18289
C          6.15689         3.46497         0.18623
C          7.35596         1.32889        -0.23403
C          7.34649         4.14671         0.16734
C          6.14982         6.36093         0.61661
C          6.07981         7.76392         0.19086
C          7.47733         5.59871         0.59317
C          7.28271         8.45499        -0.38507
C          6.11697        10.62480         0.01058
C          6.11999        12.08417        -0.11782
C          7.31312         9.91683        -0.05173
C          7.31330        12.76170        -0.30216
C          6.03373        14.99226        -0.49568
C          6.10279        16.44729        -0.22745
C          7.30192        14.21263        -0.66872
C          7.31569        17.12103        -0.16709
C          6.06445        19.27485         0.11507
C          7.35484        18.54646         0.34838
C          8.59247         1.98319        -0.14599
C          8.59435         3.44094        -0.08938
C          9.81398         1.26638        -0.18252
C          9.77440         4.12580        -0.30158
C          8.57872         6.34095        -0.13096
C          8.58831         7.70934        -0.21746
C          9.79903         5.59996        -0.61167
C          9.83996         8.42292        -0.34836
C          8.62859        10.60142         0.14500
C          8.58964        12.07620        -0.20324
C          9.80175         9.91406        -0.57153
C          9.79246        12.74535        -0.27474
C          8.61951        14.97809        -0.73849
C          8.57293        16.43561        -0.29239
C          9.75831        14.22064        -0.10869
C          9.75699        17.13863        -0.16868
C          8.59715        19.28782        -0.06734
C          9.79014        18.59988        -0.17727
C         11.05329         1.92905        -0.28901
C         11.00882         3.38090        -0.53409
C         12.29813         1.28077        -0.24662
C         12.33925         4.17052        -0.40805
C         11.08693         6.30761        -0.23635
C         11.05448         7.75425        -0.19858
C         12.28053         5.62780        -0.15617
C         12.30652         8.47137        -0.04717
C         11.08838        10.61571        -0.18522
C         11.06751        12.05054        -0.12122
C         12.27832         9.92189         0.00783
C         12.25426        12.76204         0.08123
C         11.01953        14.95666         0.11222
C         11.07198        16.47519         0.15565
C         12.27607        14.21769        -0.30175
C         12.25654        17.06399        -0.61404
C         11.06617        19.25567        -0.32910
C         12.28193        18.56924        -0.44764
C         13.52532         1.99928        -0.12405
C         13.50371         3.41117        -0.02537
C         14.78016         1.30257        -0.03362
C         14.70099         4.12251         0.54287
C         13.53343         6.32515         0.09583
C         13.50666         7.77989         0.10174
C         14.69399         5.62387         0.34769
C         14.75457         8.50157         0.28713
C         13.50369        10.63708         0.29715
C         13.49242        12.08975         0.35063
C         14.70456         9.94503         0.40285
C         14.65804        12.82255         0.61197
C         13.49284        15.01141         0.08564
C         13.52835        16.36470        -0.15707
C         14.65242        14.29541         0.61075
C         14.77711        17.09288        -0.15033
C         13.52722        19.21479        -0.54145
C         14.76516        18.50105        -0.50076
C         16.00152         1.99442        -0.08647
C         15.93348         3.48171        -0.09321
C         17.25162         1.37341        -0.24876
C         17.22236         4.26125        -0.10958
C         15.96500         6.34435         0.72798
C         15.94519         7.82194         0.45529
C         17.23959         5.67724         0.24926
C         17.24967         8.54397         0.70495
C         15.94629        10.65632         0.74673
C         15.93541        12.15558         0.88372
C         17.22527        10.01847         0.24105
C         17.22461        12.88726         0.71957
C         15.99109        15.04905         0.58940
C         15.99021        16.42440         0.06018
C         17.23410        14.25290         0.54573
C         17.24249        17.06435        -0.24387
C         15.98826        19.14598        -0.72396
C         17.22454        18.44717        -0.65179
C         18.47619         2.10760        -0.32186
C         18.48313         3.52383        -0.18263
C         19.73120         1.45482        -0.49041
C         19.69696         4.24788        -0.09514
C         18.45730         6.35520         0.27221
C         18.46177         7.85677         0.05579
C         19.67860         5.65990         0.12333
C         19.74127         8.56422         0.46906
C         18.49335        10.72451         0.70375
C         18.47271        12.13824         0.77981
C         19.70038         9.97573         0.72990
C         19.71187        12.87234         0.64356
C         18.51787        15.04173         0.56766
C         18.46728        16.37582        -0.13614
C         19.72588        14.20270         0.27042
C         19.69097        17.01932        -0.45099
C         18.44757        19.09966        -0.89828
C         19.67203        18.41350        -0.80748
C         20.91682         2.17812        -0.55207
C         20.93436         3.57402        -0.35217
C         22.12506         4.37803        -0.54137
C         20.98307         6.33851         0.46554
C         20.94361         7.85727         0.48286
C         22.13825         5.70747        -0.27396
C         22.17617         8.54782         0.73369
C         20.96176        10.64916         1.09137
C         20.98227        12.19270         0.97484
C         22.20497         9.88145         1.01139
C         22.22850        12.95976         0.76681
C         20.96319        14.80398        -0.35163
C         20.94684        16.32232        -0.42424
C         22.22053        14.18803         0.22254
C         22.11303        17.02067        -0.68600
C         20.90594        19.09081        -1.04785
C         22.09741        18.41089        -0.96421
O          5.46390         6.14414         1.92123
O         15.96347        11.24661         2.07783
O         16.33956         4.06110        -1.34755
O         11.76023         3.80116        -1.72138
O         15.22560        14.88395         1.82858
O         20.89768        11.53156         2.27084
O         17.17449        10.13237        -1.16213
O          3.18273        10.29003         1.85482
O          6.50231        14.54371        -1.86794
O         10.22403        14.50517         1.26669
O         21.19513         5.98915         1.89064
H         21.31639         5.01632         1.93769
O         11.33044        16.83592         1.54148
H         10.83994        16.18973         2.09934
O          4.77362         3.66725         2.12851
H          5.22820         4.38053         2.63834
O          4.57972        12.61013        -1.85194
H          5.25107        13.19120        -2.28955
O         16.07575         6.21337         2.21257
H         16.69513         6.93623         2.50655
O          7.10538         8.45896        -1.86251
H          7.84899         9.00104        -2.22603
O          9.74646         5.67216        -2.08290
H         10.49364         5.11117        -2.40791
O         14.74414         3.84834         1.97326
H         15.21894         4.59960         2.40712
O          7.47159        18.42189         1.82860
H          8.35983        18.04568         2.01256
O         20.91579        14.38663        -1.76536
H         20.83764        13.40926        -1.79115
O          9.55492        10.11025        -2.00058
H         10.33696         9.78163        -2.49303
O          9.00357        15.02420        -2.14231
H          8.16947        15.12346        -2.65805
O          2.02485         3.81491         1.78541
H          2.90128         3.70358         2.23374
O         17.48455         8.53036         2.14587
H         16.95795         9.25890         2.54753
O         18.69981        15.41866         1.99307
H         18.54205        14.61668         2.53715
O         12.24791        14.15339        -1.76469
H         12.08480        15.06896        -2.11308
O          7.97580         5.54963         1.97017
H          7.20586         5.71769         2.56182
O          8.92819        10.50209         1.57261
H          8.22383        10.97059         2.06776
O         18.39904         7.93622        -1.38030
H         17.95443         8.81605        -1.61467
O         12.04779        16.82113        -2.03595
H         12.75142        17.29191        -2.53011
H          0.43013         1.85833        -1.57194
H          0.19248         3.98057        -0.38276
H          2.59354         0.60736        -1.55021
H          0.20954         5.84408         0.07651
H          0.21548         8.27902         0.27408
H          0.15868        10.21088         0.55577
H          0.23966        12.62349         0.61711
H          0.26442        14.51588         0.65348
H          0.28654        16.96849         0.54286
H          1.47259        19.11214         0.26994
H          4.91918         0.40691        -0.87303
H          3.59258        20.37476         0.06402
H          7.32503         0.24136        -0.39662
H          6.06441        20.37428         0.16910
H          9.78966         0.16731        -0.14237
H          8.58572        20.38837        -0.07526
H         12.32495         0.18323        -0.17601
H         11.08271        20.35664        -0.29799
H         14.77861         0.20308        -0.07374
H         13.56087        20.31404        -0.59875
H         17.29719         0.27546        -0.30645
H         15.99746        20.21611        -0.98002
H         19.75150         0.36223        -0.61143
H         18.44646        20.16841        -1.15993
H         21.86369         1.65454        -0.74966
H         23.01211         3.89220        -0.97577
H         23.04603         6.29610        -0.46984
H         23.11464         7.97609         0.74689
H         23.15060        10.37637         1.27167
H         23.16548        12.53277         1.15373
H         23.17260        14.72787         0.11530
H         23.08041        16.50049        -0.71039
H         20.88653        20.15980        -1.30439
H         23.04758        18.92980        -1.15245
