         424
 CSIRO Nanostructure Databank - Neutral Graphene Oxide Data Set
C          1.28839         1.98411        -1.11354
C          1.25481         3.39705        -1.06702
C          2.46126         1.29821        -0.89203
C          2.39673         4.14656        -0.78853
C          1.17951         6.33714        -0.72727
C          1.14863         7.75565        -0.45026
C          2.33598         5.60485        -0.66580
C          2.27970         8.49457        -0.26293
C          1.06284        10.78331        -0.18819
C          1.11530        12.16491         0.01063
C          2.28127         9.97658        -0.19958
C          2.27087        12.85244         0.37570
C          1.07267        15.09523         0.38566
C          1.12072        16.43477         0.19383
C          2.32492        14.32392         0.69559
C          2.38329        17.12200         0.07417
C          2.44179        18.53791         0.10031
C          3.67566         2.00751        -0.63805
C          3.64783         3.44795        -0.57861
C          4.89241         1.32186        -0.49157
C          4.85687         4.13684        -0.35280
C          3.55425         6.32259        -0.12228
C          3.61953         7.81245        -0.49940
C          4.89389         5.64281        -0.47193
C          4.83526         8.45623         0.15932
C          3.55006        10.66369         0.21518
C          3.53103        12.10513         0.70877
C          4.73822         9.86365         0.71865
C          4.79144        12.80485         0.21262
C          3.58251        14.97101         0.13173
C          3.57848        16.34894        -0.06621
C          4.79252        14.18528        -0.02050
C          4.79716        17.07265        -0.58296
C          3.64914        19.21647         0.07394
C          4.87617        18.52179        -0.14089
C          6.11538         2.01340        -0.33270
C          6.09284         3.45354        -0.26348
C          7.35226         1.32596        -0.28501
C          7.33344         4.17315        -0.16643
C          6.02417         6.24797         0.37472
C          6.02235         7.76524         0.30042
C          7.33374         5.60086         0.02450
C          7.27662         8.43783         0.53821
C          6.00438        10.65583         0.45589
C          5.99600        12.00729         0.18640
C          7.26805         9.92432         0.84719
C          7.27235        12.67102        -0.29759
C          6.05694        14.87416        -0.27743
C          6.08820        16.32490        -0.37270
C          7.25682        14.16854        -0.23058
C          7.27577        17.01138        -0.47320
C          6.09599        19.16567        -0.11305
C          7.33055        18.46752        -0.39091
C          8.57486         2.02336        -0.22529
C          8.56242         3.46578        -0.18277
C          9.82501         1.35231        -0.21688
C          9.79973         4.17430        -0.16338
C          8.49775         6.33602         0.07595
C          8.49880         7.75535         0.39705
C          9.76430         5.64583        -0.23244
C          9.77447         8.43624         0.54172
C          8.53950        10.53974         0.24336
C          8.54105        12.04175         0.23439
C          9.75738         9.90485         0.90831
C          9.71343        12.75479         0.34811
C          8.52209        14.84560        -0.25439
C          8.54665        16.25702        -0.78014
C          9.68819        14.19307         0.10576
C          9.79766        17.03594        -0.49414
C          8.51716        19.15306        -0.52471
C          9.80444        18.48087        -0.91444
C         11.03957         2.05602        -0.14643
C         11.02949         3.50165        -0.11697
C         12.28540         1.37120        -0.12196
C         12.27892         4.21941         0.03082
C         11.06145         6.39537        -0.05504
C         10.99868         7.79848         0.40063
C         12.29881         5.62812         0.15472
C         12.25339         8.49298         0.58572
C         11.02777        10.63552         0.57367
C         11.00522        12.06078         0.49599
C         12.22677         9.91892         0.65739
C         12.22202        12.76036         0.36827
C         10.91544        14.98292         0.30566
C         10.95637        16.40038        -0.10716
C         12.24686        14.23494         0.38258
C         12.21348        17.09298        -0.06208
C         11.02585        19.21084        -0.45198
C         12.22150        18.53162        -0.18507
C         13.50380         2.05065         0.01802
C         13.50595         3.50182         0.15925
C         14.73670         1.35770        -0.04994
C         14.71137         4.19633         0.35876
C         13.50504         6.33285         0.37446
C         13.49570         7.77715         0.52860
C         14.73224         5.61199         0.41466
C         14.74070         8.45302         0.58492
C         13.47640        10.67320         0.81209
C         13.48148        12.09367         0.43272
C         14.78197         9.91237         0.78736
C         14.69047        12.75275         0.17597
C         13.45852        14.94788         0.01185
C         13.44722        16.36434        -0.05542
C         14.60980        14.10839        -0.49576
C         14.66902        17.09294        -0.18070
C         13.46972        19.21488        -0.03913
C         14.69082        18.51007        -0.05470
C         15.97316         2.01413         0.12127
C         15.97268         3.42726         0.67299
C         17.18350         1.34905        -0.04298
C         17.23827         4.18358         0.33241
C         15.99102         6.32946         0.42757
C         15.97580         7.76590         0.45925
C         17.21220         5.63413         0.33012
C         17.20845         8.50117         0.41161
C         15.99521        10.66319         0.44234
C         15.94505        12.06184         0.22899
C         17.21071         9.93997         0.35462
C         17.18715        12.78237         0.04592
C         15.93270        14.86943        -0.53372
C         15.92626        16.37564        -0.41769
C         17.19386        14.17613        -0.20781
C         17.20157        17.07150        -0.19707
C         15.95959        19.18697         0.04077
C         17.17922        18.51239        -0.00187
C         18.44192         2.02955         0.12571
C         18.41470         3.49108         0.18467
C         19.63671         1.34935         0.19108
C         19.68521         4.20795        -0.18525
C         18.45444         6.36029         0.28082
C         18.44548         7.80016         0.35344
C         19.67434         5.66825         0.17669
C         19.67724         8.51377         0.34839
C         18.43537        10.66268         0.26550
C         18.42797        12.09037         0.16719
C         19.67370         9.95724         0.32854
C         19.65605        12.82595         0.15801
C         18.40524        14.91419        -0.20796
C         18.38355        16.36292        -0.27852
C         19.64303        14.23279         0.00016
C         19.65985        17.12056        -0.52950
C         18.43070        19.18140         0.19696
C         19.65191        18.53191         0.02721
C         20.89981         2.03514         0.63129
C         20.93661         3.50090         0.26432
C         22.17226         1.32033         0.25308
C         22.11158         4.19393         0.36911
C         20.91231         6.35940         0.25329
C         20.90925         7.79064         0.33862
C         22.14545         5.64386         0.28654
C         22.14662         8.47822         0.41251
C         20.87725        10.68895         0.41094
C         20.90396        12.11246         0.33712
C         22.12089         9.93424         0.63216
C         22.12853        12.83415         0.37826
C         20.88902        14.99407         0.02664
C         20.89835        16.35365        -0.15741
C         22.15355        14.27300         0.22732
C         22.19203        17.10760        -0.34914
C         20.88380        19.19098         0.25040
C         22.13229        18.55916         0.08896
C         23.38239         1.98486         0.30124
C         23.37274         3.44132         0.59926
C         24.64067         1.34530         0.08485
C         24.68388         4.20309         0.45067
C         23.38356         6.34963         0.31222
C         23.37374         7.78897         0.35274
C         24.62537         5.66138         0.25002
C         24.62786         8.50247         0.31438
C         23.41996        10.67751         0.56366
C         23.39234        12.14341         0.38390
C         24.65640         9.92662         0.29988
C         24.59187        12.81093         0.31577
C         23.35132        14.96191         0.26766
C         23.36617        16.46093         0.37358
C         24.63673        14.27252         0.62354
C         24.64984        17.15110        -0.05770
C         23.35300        19.21229         0.27971
C         24.63154        18.58090         0.06443
C         25.84361         2.06716        -0.06100
C         25.87085         3.46012         0.02890
C         27.07836         1.36081        -0.58823
C         27.06548         4.21922        -0.48953
C         25.85087         6.36111         0.10546
C         25.84803         7.79791         0.17441
C         27.07721         5.66558        -0.06202
C         27.08116         8.50809         0.11713
C         25.84890        10.62581         0.11404
C         25.81128        12.09728        -0.19363
C         27.08279         9.93245         0.06824
C         27.10302        12.82155         0.05190
C         25.85459        14.95967         0.07507
C         25.81911        16.34670        -0.22594
C         27.08206        14.24233        -0.02864
C         27.04574        16.92344        -0.67178
C         25.80432        19.39682         0.18173
C         27.06410        19.01407        -0.32662
C         28.36595         2.08074        -0.24212
C         28.35639         3.49582        -0.19395
C         29.56499         1.38637        -0.10863
C         29.55712         4.21517        -0.00307
C         28.30787         6.36259         0.02826
C         28.31560         7.79756         0.10966
C         29.54828         5.65701         0.05354
C         29.53902         8.51881         0.16259
C         28.32435        10.64859         0.05548
C         28.31797        12.11481         0.01021
C         29.52335         9.94556         0.15878
C         29.53663        12.81812        -0.12510
C         28.32247        14.94105        -0.18818
C         28.31325        16.34769        -0.43035
C         29.55234        14.22648        -0.22680
C         29.52793        17.11261        -0.45317
C         28.37245        19.35373         0.02958
C         29.53753        18.55737        -0.29585
C         30.80303         2.07631         0.04772
C         30.79350         3.50568         0.09971
C         32.03963         1.38481         0.11149
C         32.02548         4.21664         0.23265
C         30.77320         6.37793         0.17886
C         30.78259         7.80649         0.20476
C         32.00943         5.66755         0.23737
C         32.02516         8.52280         0.24499
C         30.79207        10.73195         0.40100
C         30.78221        12.02287        -0.40941
C         32.05917         9.94784         0.18799
C         32.05663        12.81271        -0.25343
C         30.78575        14.95391        -0.37884
C         30.76699        16.38417        -0.42872
C         32.03276        14.23563        -0.36774
C         32.01045        17.08688        -0.44130
C         30.78436        19.20778        -0.26344
C         32.01828        18.51978        -0.40195
C         33.25486         2.07885         0.25509
C         33.23227         3.49965         0.33978
C         34.52782         1.39551         0.24637
C         34.50046         4.23847         0.68270
C         33.21998         6.39757         0.26190
C         33.24349         7.79438         0.25835
C         34.48323         5.63420         0.11466
C         34.53269         8.53902         0.50115
C         33.27048        10.66073         0.03166
C         33.26167        12.10721        -0.14836
C         34.51379         9.97972         0.07223
C         34.50962        12.80666        -0.23121
C         33.26554        14.94256        -0.42650
C         33.24959        16.38199        -0.47971
C         34.50369        14.22703        -0.38673
C         34.46051        17.09948        -0.58787
C         33.24793        19.21404        -0.42953
C         34.47919        18.52742        -0.53261
C         35.74372         2.07282         0.25843
C         35.77932         3.50864         0.36297
C         36.99773         1.37279         0.04042
C         36.98514         4.21557         0.30480
C         35.77544         6.36446        -0.00271
C         35.78322         7.82399         0.07061
C         37.03243         5.63086         0.18837
C         36.98938         8.50719         0.00731
C         35.74205        10.66723        -0.05518
C         35.74291        12.09938        -0.20310
C         36.99015         9.95796        -0.03406
C         36.98100        12.80369        -0.27427
C         35.74247        14.91481        -0.51728
C         35.71010        16.35848        -0.78622
C         36.97564        14.23472        -0.41748
C         37.02983        17.13283        -0.69429
C         35.72127        19.23214        -0.44668
C         36.95886        18.57805        -0.39731
C         38.20121         2.02575         0.04890
C         38.27695         3.46760         0.49820
C         39.45113         1.34962        -0.22105
C         39.48982         4.21208        -0.00339
C         38.24708         6.35578         0.07053
C         38.23648         7.77485        -0.06042
C         39.49430         5.62821        -0.04179
C         39.46633         8.49708        -0.17005
C         38.21335        10.65845        -0.12877
C         38.21325        12.09137        -0.21052
C         39.45939         9.93260        -0.17026
C         39.45302        12.80944        -0.19675
C         38.22232        14.95980        -0.35143
C         38.24234        16.37740        -0.35392
C         39.45148        14.24310        -0.18475
C         39.42595        17.09862        -0.06042
C         38.16099        19.23732        -0.07118
C         39.38424        18.53677         0.05230
C         40.62204         2.03719        -0.33401
C         40.66585         3.48880        -0.27370
C         41.86191         4.19680        -0.54165
C         40.70599         6.33246        -0.28552
C         40.70033         7.78591        -0.27263
C         41.88420         5.58169        -0.52288
C         41.89915         8.52921        -0.35157
C         40.68630        10.64596        -0.21382
C         40.68545        12.09803        -0.15447
C         41.89392         9.91281        -0.30907
C         41.88579        12.83517        -0.04584
C         40.67625        14.95568        -0.01923
C         40.66477        16.40285         0.10318
C         41.87924        14.21761         0.04447
C         41.82791        17.14829         0.37103
C         40.58691        19.23370         0.33748
C         41.78165        18.54458         0.48837
O          3.31635        10.53491        -1.20381
O         35.02780         5.79259        -1.22398
O         22.83039        10.32684         1.87655
O         26.98578        18.08520        -1.41118
O         14.18273        10.35784         2.06467
O         15.99295        15.67657        -1.75985
O         36.45441        16.76298        -1.98882
O         11.56709        14.76285         1.58957
O         24.12798         3.80949         1.77964
O         10.48283         6.19848        -1.39782
O          8.60112        10.12787        -1.14712
H          8.01917        10.73671        -1.66900
O          9.83374        18.48742        -2.43248
H         10.76796        18.33806        -2.69658
O         14.25109        13.79917        -1.88606
H         14.64698        14.52201        -2.43098
O         26.93138         4.21910        -1.97959
H         27.69470         4.72110        -2.33892
O         38.45908         3.40258         1.96551
H         39.30675         2.93599         2.12769
O          8.53797        16.09400        -2.25465
H          8.84727        16.96341        -2.62585
O          5.25991         5.89976        -1.84556
H          4.45250         5.87715        -2.40030
O         26.97276         1.33199        -2.02717
H         26.90336         2.27309        -2.32191
O         23.20704        16.73057         1.80123
H         23.83546        16.12598         2.26843
O          5.85077         5.93964         1.78325
H          5.03526         6.40720         2.08635
O         24.74806        14.39344         2.12033
H         24.14283        13.72382         2.50893
O         30.78627        11.12282         1.80802
H         30.85530        10.30791         2.34841
O          3.34915         6.30060         1.32173
H          3.11262         5.38405         1.57796
O          4.59935         9.64357         2.15876
H          4.27431        10.49555         2.55070
O          3.63076        12.06370         2.17163
H          3.31827        12.94633         2.50667
O         30.71400        11.62837        -1.81661
H         30.77378        12.44141        -2.36085
O          2.46468        14.43372         2.19074
H          2.60609        15.38416         2.39259
O          4.61934        17.12057        -2.04296
H          5.44107        17.49692        -2.42462
O         34.63576         8.58530         1.98780
H         35.42642         9.12454         2.20652
O         19.72681        17.29342        -2.00592
H         19.33587        16.49032        -2.41309
O          9.68160        10.02920         2.35209
H         10.51441         9.67588         2.72851
O         22.47419        17.07411        -1.77161
H         21.63748        17.33798        -2.22780
O         34.49136         4.41907         2.14074
H         34.58709         3.53415         2.55187
O         20.85982         2.00682         2.11485
H         21.69728         2.40602         2.43795
O          7.27591        12.38499        -1.76327
H          7.83170        13.07023        -2.19578
O          3.81140         7.94069        -1.93443
H          3.79488         8.91079        -2.12484
O         15.96839         3.27497         2.13503
H         16.78662         2.79186         2.37958
O         19.74485         4.16629        -1.66824
H         18.95161         4.63762        -2.00190
O          7.26950        10.07367         2.28952
H          6.39332         9.73577         2.60401
O         25.65553        12.15445        -1.67278
H         26.45263        11.73545        -2.06348
H          0.35990         1.43579        -1.32597
H          0.29511         3.90119        -1.24510
H          2.48232         0.19956        -0.92930
H          0.22423         5.86078        -0.99110
H          0.16105         8.24016        -0.42722
H          0.09322        10.30467        -0.38001
H          0.17397        12.72311        -0.10273
H          0.10009        14.59675         0.49883
H          0.19416        17.02109         0.09990
H          1.50433        19.09929         0.22714
H          4.90058         0.22338        -0.55571
H          3.67217        20.30639         0.22145
H          7.35795         0.22644        -0.32557
H          6.13911        20.24663         0.09229
H          9.84251         0.25258        -0.25512
H          8.52227        20.24637        -0.39442
H         12.29007         0.27380        -0.20729
H         11.03624        20.30805        -0.53474
H         14.73014         0.28350        -0.29241
H         13.47923        20.31437        -0.00829
H         17.18922         0.27734        -0.29471
H         15.95701        20.27849         0.17960
H         19.64035         0.25072         0.11921
H         18.42032        20.23810         0.50607
H         22.14884         0.22947         0.10726
H         20.86048        20.24225         0.58131
H         24.64946         0.26051        -0.09823
H         23.34670        20.28484         0.53320
H         27.11136         0.30030        -0.23459
H         25.71079        20.34876         0.72570
H         29.56839         0.28731        -0.16287
H         28.54299        20.26186         0.62722
H         32.04608         0.28682         0.04039
H         30.80728        20.30080        -0.13720
H         34.52680         0.30033         0.13714
H         33.24675        20.31225        -0.36361
H         36.95997         0.29543        -0.18607
H         35.69064        20.32193        -0.29737
H         39.43531         0.25830        -0.36310
H         38.14853        20.32383         0.10199
H         41.55832         1.50097        -0.54789
H         42.78251         3.63559        -0.75755
H         42.83384         6.09544        -0.72404
H         42.86440         8.01132        -0.42906
H         42.85573        10.43934        -0.36328
H         42.85174        12.31521        -0.00104
H         42.83926        14.73878         0.15681
H         42.79447        16.64344         0.50039
H         40.56211        20.32867         0.43246
H         42.70715        19.09656         0.70465
