         430
 CSIRO Nanostructure Databank - Neutral Graphene Oxide Data Set
C         27.89741        27.56879        -0.11066
C         27.91638        28.95645         0.30516
C         26.73329        29.72514         0.21571
C         27.97481        31.75523         0.72955
C         26.75852        31.08605         0.45723
C         28.00762        33.19092         0.98045
C         26.84350        33.97783         0.96417
C         28.04898        36.01109         1.57639
C         26.88982        35.37422         1.21245
C         28.11762        37.45764         2.02528
C         26.84533        38.21688         1.78478
C         28.04404        40.26917         1.19157
C         26.83366        39.52125         1.43100
C         27.99751        41.68030         0.97326
C         26.79116        42.43818         1.09071
C         28.00378        44.52957         0.77957
C         26.79185        43.81167         0.98944
C         28.02779        45.95708         0.67613
C         30.27242        27.32739         0.45914
C         29.02438        26.82191        -0.14201
C         30.34135        28.77720         0.87879
C         29.12846        29.59229         0.65705
C         30.45862        31.67469         0.92415
C         29.17690        31.00185         0.80134
C         30.47406        33.10605         1.06146
C         29.26039        33.81861         1.20981
C         30.55898        35.97123         1.36811
C         29.31223        35.21725         1.76089
C         30.52861        37.41956         1.27338
C         29.33992        38.14841         1.44221
C         30.49255        40.25135         0.85687
C         29.29693        39.56021         1.17967
C         30.46372        41.66984         0.58265
C         29.20546        42.39615         0.69500
C         30.52611        44.53470         0.56195
C         29.20464        43.79820         0.62910
C         30.42598        45.99146         0.15510
C         29.18418        46.64720         0.35642
C         32.81699        24.52937         0.11111
C         31.63458        25.17584         0.26739
C         32.84456        27.40470         0.03492
C         31.54010        26.62668         0.07618
C         32.88945        28.80992         0.46876
C         31.68959        29.46959         1.12940
C         32.91463        31.64679         0.81886
C         31.66528        30.96327         0.89115
C         32.92934        33.08152         0.81035
C         31.71606        33.81019         1.03799
C         33.05126        35.94975         1.12337
C         31.71667        35.24720         1.13374
C         32.95830        37.41231         0.75973
C         31.74258        38.11082         0.89922
C         32.92564        40.21239         0.41074
C         31.72690        39.53240         0.71846
C         32.95340        41.71340         0.47447
C         31.61862        42.34079         0.22458
C         32.84263        44.49423        -0.37936
C         31.52412        43.76238        -0.28503
C         32.83453        45.89169        -0.47426
C         31.60462        46.64484        -0.26669
C         32.80915        48.69322        -0.86698
C         31.65454        48.05995        -0.48538
C         35.31929        23.09130        -0.40434
C         35.29340        24.50344        -0.30394
C         34.06225        25.23133        -0.11497
C         35.33439        27.34789        -0.02944
C         34.09558        26.63025        -0.02936
C         35.33049        28.74849         0.24396
C         34.12164        29.47027         0.51952
C         35.35877        31.64560         0.59114
C         34.15125        30.92747         0.70673
C         35.36379        33.07186         0.45355
C         34.14917        33.76674         0.55698
C         35.39819        35.94651         0.27538
C         34.06925        35.23696         0.23773
C         35.38852        37.35677         0.26671
C         34.14598        38.08311         0.41424
C         35.35478        40.18830        -0.06202
C         34.13780        39.50475         0.23599
C         35.31089        41.57732        -0.63854
C         34.07112        42.35181        -0.29603
C         35.28618        44.41885        -0.78473
C         34.05628        43.73266        -0.53383
C         35.26796        45.83148        -1.26672
C         34.03221        46.59215        -0.85603
C         35.24573        48.63244        -1.54591
C         34.02375        47.96172        -1.08587
C         35.18082        49.89944        -2.12889
C         37.74436        23.08256        -0.68276
C         36.50588        22.40137        -0.55322
C         37.72733        24.49152        -0.68393
C         36.52479        25.21819        -0.42909
C         37.80732        27.36159        -0.35744
C         36.54993        26.64112        -0.26515
C         37.83780        28.76533        -0.07161
C         36.62499        29.41019         0.41449
C         37.89045        31.66004         0.25349
C         36.65006        30.94457         0.61107
C         37.84646        33.09561         0.15731
C         36.61598        33.78874         0.25868
C         37.84260        35.94850         0.06829
C         36.60945        35.22574         0.19308
C         37.83616        37.37538         0.01481
C         36.60622        38.07706         0.11110
C         37.82586        40.21832        -0.13108
C         36.58559        39.50779        -0.01949
C         37.81762        41.70868         0.07382
C         36.55031        42.38471        -0.36526
C         37.74859        44.56623        -0.21293
C         36.51361        43.75679        -0.53311
C         37.75843        45.98054        -0.77101
C         36.55212        46.60380        -1.02564
C         37.74358        48.70049        -1.60632
C         36.52139        47.99300        -1.37996
C         37.58951        49.92600        -2.31432
C         36.35379        50.50927        -2.58243
C         40.24967        20.24833        -0.54490
C         39.04514        20.93389        -0.58298
C         40.24075        23.02385        -0.88507
C         39.00702        22.33834        -0.74233
C         40.25909        24.49074        -1.07041
C         38.96040        25.24840        -0.96509
C         40.27784        27.41937        -0.92481
C         38.98385        26.68844        -0.69097
C         40.25359        28.82935        -0.39603
C         39.07061        29.49570        -0.09526
C         40.31817        31.67766        -0.15914
C         39.08128        30.95372         0.06430
C         40.30361        33.11194        -0.16320
C         39.07464        33.81645        -0.02144
C         40.30001        35.96871        -0.16901
C         39.07269        35.24379        -0.04290
C         40.28674        37.39758        -0.22449
C         39.06116        38.09935        -0.15710
C         40.28951        40.26727        -0.43520
C         39.04281        39.53851        -0.21495
C         40.26765        41.66892        -0.61489
C         39.05255        42.41109        -0.45256
C         40.23344        44.57893        -0.37105
C         39.00233        43.79461        -0.52069
C         40.22525        46.03725        -0.56888
C         38.99888        46.72351        -0.84206
C         40.27413        48.83192        -1.10311
C         39.02331        48.10347        -1.22990
C         40.39336        50.29293        -1.20657
C         39.52506        51.11651        -1.94063
C         40.44631        53.15867        -1.04407
C         39.52096        52.52035        -1.85340
C         42.73692        20.23948        -0.59234
C         41.47641        20.93386        -0.68405
C         42.75190        23.04724        -1.24321
C         41.46453        22.33559        -0.86743
C         42.73037        24.51964        -0.88812
C         41.53991        25.19453        -0.81391
C         42.78047        27.34795        -0.65541
C         41.49111        26.63260        -0.34160
C         42.70875        28.80377        -0.83475
C         41.56706        29.50501        -0.13625
C         42.75997        31.69916        -0.51238
C         41.53488        30.99581        -0.34845
C         42.75998        33.12309        -0.42899
C         41.53131        33.83195        -0.27796
C         42.76686        35.98628        -0.30370
C         41.53335        35.26290        -0.25131
C         42.76541        37.40398        -0.37244
C         41.52032        38.12694        -0.37960
C         42.78401        40.21404        -0.94881
C         41.50886        39.52936        -0.51237
C         42.80414        41.70939        -0.75365
C         41.50642        42.42136        -1.07177
C         42.74512        44.62173        -0.65930
C         41.52789        43.82864        -0.50928
C         42.71156        45.98716        -0.50294
C         41.45114        46.71859        -0.56597
C         42.69829        48.84452        -0.44591
C         41.45385        48.14096        -0.71881
C         42.66293        50.25699        -0.21126
C         41.48417        50.97555        -0.57262
C         42.57341        53.04666         0.20279
C         41.47971        52.39840        -0.45023
C         43.92430        20.92414        -0.56286
C         45.17797        23.06911        -0.55866
C         43.99084        22.34235        -0.72987
C         45.20280        24.51210        -0.73541
C         43.99319        25.22318        -0.80699
C         45.22209        27.40789        -0.99328
C         43.97526        26.67400        -0.82733
C         45.24324        28.77858        -1.05645
C         43.99274        29.56328        -1.05396
C         45.20904        31.70746        -0.74700
C         44.00708        31.01184        -0.73835
C         45.22633        33.12602        -0.55865
C         43.99807        33.83831        -0.46194
C         45.24995        35.94460        -0.31857
C         44.01031        35.25924        -0.34747
C         45.26346        37.40514         0.04932
C         44.00594        38.13101        -0.35583
C         45.28070        40.23640        -0.43982
C         44.03738        39.50995        -0.48890
C         45.24613        41.72310        -0.19218
C         43.96487        42.39705        -0.65081
C         45.19278        44.55437        -0.15371
C         44.03677        43.88646        -0.91601
C         45.17454        46.05080        -0.40185
C         43.97720        46.72047        -0.46146
C         45.12314        48.87519         0.01209
C         43.92385        48.16620        -0.34686
C         45.05161        50.24261         0.40861
C         43.80467        50.94661         0.27933
C         43.69823        52.34553         0.55280
C         47.57252        23.14235        -0.08042
C         46.41017        22.43390        -0.18430
C         47.63476        24.54247        -0.40285
C         46.45797        25.21106        -0.72907
C         47.75448        27.39021        -0.81770
C         46.50216        26.63522        -1.23976
C         47.78020        28.79781        -0.87149
C         46.52480        29.51772        -1.16513
C         47.74629        31.71658        -0.63773
C         46.49673        31.02020        -1.02294
C         47.71777        33.11214        -0.51493
C         46.46346        33.83226        -0.55729
C         47.75280        35.96778        -0.70956
C         46.45208        35.24590        -0.46394
C         47.72850        37.43813        -0.39985
C         46.53149        38.12714        -0.34709
C         47.76744        40.27199        -0.80817
C         46.49402        39.55704        -0.41001
C         47.77070        41.75646        -0.53639
C         46.51915        42.47896        -0.56325
C         47.71248        44.65285        -0.63122
C         46.48576        43.85920        -0.52286
C         47.70406        46.07305        -0.26474
C         46.44595        46.83194        -0.59450
C         47.55309        48.85492         0.42052
C         46.37719        48.20840         0.00185
C         47.44820        50.20506         0.86948
C         46.24597        50.87602         0.84823
C         50.11038        24.58796        -0.06368
C         48.91216        25.25253        -0.37311
C         50.26013        27.37634        -0.69875
C         48.93683        26.66302        -0.56305
C         50.19471        28.84589        -0.36087
C         48.97741        29.54473        -0.57129
C         50.15912        31.68111        -0.11450
C         48.95157        30.97610        -0.44769
C         50.15351        33.09471         0.01024
C         48.93622        33.83779        -0.20742
C         50.09434        35.97539         0.43138
C         48.93170        35.22566        -0.14909
C         50.17451        37.42523         0.02694
C         48.99404        38.13783        -0.28156
C         50.20946        40.25779        -0.09192
C         49.01379        39.55289        -0.35316
C         50.20332        41.69631        -0.02777
C         48.97315        42.41133        -0.29825
C         50.15573        44.61800         0.14901
C         49.03876        43.87661        -0.41889
C         50.12031        45.99518         0.28561
C         48.87127        46.73380         0.09706
C         50.00762        48.77896         0.83971
C         48.82319        48.14302         0.43665
C         51.31609        25.28651         0.13820
C         52.63879        27.38505         0.18710
C         51.42001        26.65290        -0.06834
C         52.62084        28.81051         0.19204
C         51.38801        29.53602        -0.03444
C         52.59846        31.66691         0.33174
C         51.38075        30.95578         0.07437
C         52.60197        33.08902         0.36428
C         51.37853        33.81619         0.22857
C         52.62170        35.93894         0.37999
C         51.39413        35.22824         0.29875
C         52.62605        37.39037         0.38356
C         51.40696        38.11017         0.18784
C         52.62181        40.25830         0.43557
C         51.41964        39.54400         0.16277
C         52.59870        41.68303         0.50794
C         51.38009        42.38470         0.31472
C         52.62143        44.57754         0.35714
C         51.33093        43.84789         0.70825
C         52.56555        46.02785         0.79297
C         51.32498        46.71243         0.70346
C         51.21713        48.09794         0.95619
C         55.02578        27.40189         0.70317
C         53.85588        26.70816         0.44924
C         55.03071        28.81365         0.72987
C         53.81823        29.52585         0.48105
C         55.03125        31.66320         0.81441
C         53.81934        30.95517         0.52944
C         55.03079        33.08143         0.83852
C         53.82684        33.80240         0.54919
C         55.16157        35.93140         0.37575
C         53.83486        35.22095         0.47940
C         55.08810        37.40999         0.67940
C         53.85033        38.10599         0.57571
C         55.04480        40.24411         0.95428
C         53.84011        39.53760         0.66364
C         55.02658        41.69177         1.07292
C         53.82010        42.40499         0.81923
C         54.99918        44.52678         1.19223
C         53.82911        43.81870         0.85084
C         54.96143        45.96127         1.28852
C         53.78429        46.66640         1.13595
C         56.23022        29.54129         1.00516
C         56.23123        30.90928         1.04459
C         56.18874        33.84622         1.25645
C         56.23516        35.19129         1.13290
C         56.26162        38.13027         0.90687
C         56.24135        39.51420         1.07935
C         56.19341        42.42241         1.41252
C         56.18158        43.80190         1.48943
O         36.80571        30.04164         1.74477
O         48.60479        44.33758        -1.74541
O         43.06332        29.26299        -2.16525
O         39.57858        24.91958        -2.31907
O         46.58063        30.39057        -2.35922
O         45.19689        41.76558         1.24085
O         38.68224        50.55599        -2.90798
O         32.02010        27.15053        -1.20239
O         40.95830        44.04241         0.81800
O         30.13325        27.69191         1.87085
O         47.78404        40.17105        -2.28417
H         48.56454        40.67148        -2.60534
O         45.27818        37.42851         1.52284
H         45.24582        38.37048         1.79943
O         46.55067        47.04416        -2.05904
H         46.58835        46.15784        -2.48114
O         29.45972        35.01884         3.25081
H         28.75714        34.38752         3.52039
O         33.23393        42.04213         1.90291
H         32.87810        42.94487         2.06963
O         28.29952        37.44624         3.48036
H         28.90483        36.68832         3.68766
O         51.22153        43.87280         2.16094
H         50.41671        43.37632         2.41835
O         41.85752        29.31362         1.29859
H         41.05965        29.58015         1.80396
O         46.60413        26.51306        -2.70118
H         46.39247        27.38933        -3.08932
O         31.96037        29.34497         2.56289
H         31.48613        28.53562         2.86936
O         52.70932        44.58779        -1.10057
H         53.52783        45.06583        -1.34938
O         41.45041        42.57005        -2.52663
H         41.71676        41.69571        -2.90146
O         37.75489        44.73193         1.24013
H         37.78794        43.82005         1.62833
O         50.54783        27.33975        -2.16088
H         49.73980        27.65722        -2.61979
O         40.48054        27.51348        -2.36580
H         40.23782        26.63046        -2.74311
O         41.27393        26.58913         1.10086
H         42.12533        26.36768         1.53241
O         35.18502        45.72158        -2.74542
H         35.11517        46.63607        -3.09664
O         31.07505        44.52456         1.92263
H         30.44822        45.00915         2.50041
O         30.99529        43.69510        -1.64183
H         31.65831        43.24131        -2.20309
O         33.56481        35.87248         2.48351
H         32.89265        36.25632         3.08484
O         35.27501        41.36354        -2.11620
H         35.31575        42.25304        -2.53110
O         42.76972        40.07198        -2.43381
H         42.80313        39.11142        -2.63569
O         33.56712        35.34070        -1.12981
H         34.22741        34.93180        -1.72738
O         49.82490        36.02821         1.89806
H         49.75923        35.10074         2.21230
O         42.83021        22.96534        -2.70586
H         42.04271        23.42483        -3.06870
O         55.54867        35.86015        -1.04928
H         55.57760        34.90979        -1.29148
O         37.89095        41.91505         1.54412
H         38.76778        41.58907         1.84274
O         47.94220        35.92147        -2.18007
H         47.95384        34.97637        -2.44486
O         44.99414        44.40197         1.26751
H         45.02664        43.41195         1.47322
O         44.33101        44.01780        -2.33869
H         43.57920        43.61282        -2.82675
H         26.95486        27.16812        -0.51222
H         25.78837        29.22769        -0.04524
H         25.81856        31.65025         0.40100
H         25.86810        33.53004         0.73705
H         25.95043        35.93744         1.11799
H         25.89328        37.72080         2.02240
H         25.86488        40.03068         1.33319
H         25.83904        41.92854         1.28926
H         25.85065        44.37081         1.09332
H         27.08355        46.50802         0.79382
H         29.02827        25.82030        -0.59540
H         29.11381        47.73421         0.20554
H         32.83816        23.43950         0.24352
H         30.73406        24.62647         0.57757
H         32.80102        49.78387        -0.99957
H         30.74891        48.66224        -0.33046
H         34.38623        22.51601        -0.34732
H         34.21475        50.39245        -2.29847
H         36.47102        21.30521        -0.59521
H         36.31590        51.45056        -3.14498
H         40.25530        19.15739        -0.40829
H         38.11432        20.36248        -0.47297
H         40.44666        54.25311        -0.94435
H         38.78483        53.09087        -2.43445
H         42.72672        19.14748        -0.46447
H         42.52439        54.13347         0.36287
H         44.84881        20.35681        -0.38652
H         44.54347        52.88107         1.00515
H         48.48476        22.60871         0.21562
H         46.42877        21.35520         0.01944
H         48.33824        50.73944         1.22686
H         46.22216        51.92268         1.18016
H         50.11990        23.50302         0.09940
H         50.00245        49.85122         1.07580
H         52.17689        24.71501         0.51266
H         52.10349        48.66958         1.26285
H         55.96213        26.85615         0.88827
H         53.88711        25.61076         0.42717
H         55.88453        46.49291         1.56086
H         53.80082        47.75043         1.31837
H         57.15957        28.98100         1.18333
H         57.17265        31.43725         1.24673
H         57.02852        33.32323         1.73564
H         57.12394        35.73300         1.48557
H         57.22997        37.61370         0.94435
H         57.19126        40.02861         1.27398
H         57.13022        41.89343         1.63156
H         57.09344        44.34838         1.76977
