         620
 CSIRO Nanostructure Databank - Neutral Graphene Oxide Data Set
C         23.04584        27.70540        -1.81737
C         23.02552        28.93165        -1.22235
C         22.95674        31.83879        -0.54874
C         22.95835        33.15469        -0.24051
C         22.95538        35.64034         1.32150
C         23.01007        36.75110         2.13283
C         23.02068        40.40617         2.50590
C         23.02054        41.66096         1.90108
C         23.01813        44.13946         0.33616
C         23.01396        45.38910        -0.27459
C         25.47065        24.89666        -2.04692
C         24.33025        25.59774        -2.24366
C         25.53916        27.69984        -1.62884
C         24.33037        27.09873        -2.29665
C         25.47758        29.04050        -1.16112
C         24.22356        29.67169        -0.97749
C         25.44596        31.79400        -0.36065
C         24.16709        30.99352        -0.25158
C         25.41895        33.18447        -0.06249
C         24.17470        33.83906         0.15586
C         25.37682        35.87707         0.89148
C         24.15580        35.13159         0.75158
C         25.38672        37.16105         1.55103
C         24.22057        37.46861         2.27257
C         25.48018        40.25200         2.25379
C         24.23265        39.72510         2.63468
C         25.47717        41.64838         1.88284
C         24.23114        42.29712         1.57622
C         25.36879        44.39566         0.82386
C         24.19731        43.61199         0.91327
C         25.38000        45.67894         0.22620
C         24.17625        46.18497        -0.33037
C         25.24900        48.31292        -0.90379
C         24.16613        47.49814        -0.94297
C         27.99110        23.38591        -1.81622
C         27.93536        24.79110        -1.57971
C         26.73246        25.54146        -1.74634
C         27.94600        27.60429        -1.08360
C         26.73612        26.95052        -1.50941
C         27.92655        29.01729        -0.81849
C         26.70222        29.71825        -0.80718
C         27.90718        31.83550        -0.32029
C         26.67429        31.12185        -0.49953
C         27.89467        33.24396        -0.10304
C         26.63944        33.93416         0.04934
C         27.80140        36.12177         0.42711
C         26.58657        35.29263         0.44254
C         27.81985        37.43190         1.10616
C         26.60128        37.99000         1.59782
C         27.92685        39.90302         2.25929
C         26.63985        39.33861         2.10504
C         27.92923        42.04813         2.22535
C         26.67417        42.45019         1.78067
C         27.91023        44.62708         1.16334
C         26.59418        43.86778         1.41775
C         27.83982        45.90976         0.43869
C         26.60310        46.45894         0.13998
C         27.82668        48.66420        -0.43085
C         26.49893        47.87848        -0.25617
C         27.87824        49.90212        -1.21263
C         30.35273        23.28675        -1.18755
C         29.15299        22.66943        -1.64556
C         30.30846        24.67187        -0.91858
C         29.13509        25.44419        -1.15119
C         30.35725        27.55288        -0.56745
C         29.13864        26.86514        -0.92577
C         30.36667        28.97571        -0.41477
C         29.14788        29.70667        -0.51915
C         30.36700        31.80815        -0.05836
C         29.13935        31.11736        -0.30968
C         30.34748        33.22694         0.13391
C         29.12631        33.93228         0.07017
C         30.37265        36.07396         0.60398
C         29.13738        35.39842         0.17374
C         30.31931        37.42068         0.95596
C         29.07835        38.11117         1.16808
C         30.30186        40.30342         1.52626
C         29.12448        39.45605         1.67229
C         30.32464        41.70048         1.51522
C         29.15526        42.57028         1.68395
C         30.30576        44.37324         0.36173
C         29.13127        43.83440         1.12087
C         30.31856        45.87900         0.27848
C         29.08955        46.58406         0.15252
C         30.33164        48.57469        -0.57866
C         29.09420        47.92630        -0.28299
C         30.32804        49.89407        -1.13294
C         29.07640        50.47276        -1.52746
C         32.84309        20.43881        -1.40148
C         31.65328        21.13782        -1.41824
C         32.81561        23.15692        -0.76560
C         31.60198        22.52205        -1.09728
C         32.76841        24.54702        -0.27667
C         31.48824        25.34436        -0.34886
C         32.74535        27.50440        -0.02068
C         31.54764        26.82805        -0.34285
C         32.79700        28.91831         0.03959
C         31.58930        29.66072        -0.13322
C         32.83188        31.79634         0.12426
C         31.59266        31.08625        -0.00814
C         32.80659        33.20090         0.24178
C         31.58865        33.93609         0.32732
C         32.84523        36.05504         0.77717
C         31.60146        35.33701         0.58162
C         32.84595        37.43514         1.06612
C         31.56294        38.13303         1.44406
C         32.83875        40.31498         1.36220
C         31.54906        39.59837         1.00996
C         32.82945        41.70879         1.37472
C         31.57337        42.41181         1.22698
C         32.79767        44.53266         0.87509
C         31.58439        43.75735         0.86681
C         32.78053        45.90015         0.54699
C         31.54827        46.56420         0.17649
C         32.81744        48.63753        -0.41908
C         31.56188        47.92676        -0.26012
C         32.80805        49.98530        -0.96917
C         31.56825        50.60542        -1.29920
C         32.76137        52.62990        -1.95346
C         31.57515        51.94963        -1.75623
C         35.39835        18.96620        -1.42590
C         35.33018        20.34479        -1.09657
C         34.07900        21.07156        -1.10605
C         35.31387        23.13002        -0.51889
C         34.06689        22.46392        -0.80524
C         35.32929        24.60310        -0.37304
C         34.03096        25.33159        -0.29282
C         35.27435        27.43192         0.45165
C         33.96852        26.71956         0.26418
C         35.27060        28.90596         0.36906
C         34.05749        29.61480         0.22585
C         35.31700        31.72323         0.25540
C         34.08157        31.05256         0.17814
C         35.35666        33.19473         0.13364
C         34.05932        33.96521         0.16410
C         35.30587        36.02783         0.82259
C         34.08659        35.37333         0.59913
C         35.30268        37.44278         1.07371
C         34.06491        38.15271         1.14800
C         35.30456        40.27383         1.47444
C         34.08085        39.58443         1.35800
C         35.32260        41.75183         1.83646
C         34.04912        42.47727         1.44078
C         35.28221        44.61918         1.33572
C         34.01847        43.84780         1.26042
C         35.27273        46.10341         1.05684
C         33.93211        46.82800         0.89470
C         35.25205        48.90443         0.14558
C         34.00212        48.06454         0.02154
C         35.29836        50.07979        -0.81480
C         34.03270        50.68731        -1.18576
C         35.25420        52.65229        -2.16315
C         33.99981        52.00304        -1.71684
C         35.35878        54.11716        -2.32190
C         37.82118        18.92719        -1.11949
C         36.59666        18.28125        -1.43383
C         37.77310        20.29919        -0.79044
C         36.54232        21.01550        -0.76699
C         37.76325        23.12183        -0.13057
C         36.52098        22.43278        -0.48262
C         37.76486        24.55569         0.13497
C         36.56506        25.29427         0.05817
C         37.76952        27.39285         0.39106
C         36.54940        26.68883         0.27342
C         37.75432        28.84917         0.50182
C         36.51788        29.57995         0.45255
C         37.78963        31.69863         0.52528
C         36.54454        31.00924         0.42236
C         37.85134        33.17825         0.22538
C         36.57886        33.91651         0.50585
C         37.79516        35.94599         1.10514
C         36.56218        35.28095         0.77661
C         37.75140        37.36977         1.47423
C         36.51848        38.14817         1.27090
C         37.79874        40.28040         1.36133
C         36.53466        39.55844         1.43226
C         37.81259        41.73952         1.25409
C         36.57553        42.47616         1.38447
C         37.74265        44.61142         0.98037
C         36.54696        43.85781         1.20718
C         37.72047        45.96328         0.62821
C         36.51785        46.74095         0.55419
C         37.73257        48.77237        -0.17289
C         36.52521        48.07937         0.11968
C         37.76578        50.07837        -0.70020
C         36.50962        50.66909        -1.13828
C         37.84161        52.64089        -2.13888
C         36.54418        51.89612        -1.96796
C         37.83137        54.10006        -2.32272
C         36.55596        54.76356        -2.39698
C         40.33123        16.07941        -1.39699
C         39.15184        16.78312        -1.42092
C         40.22834        18.78456        -0.55089
C         39.08100        18.17659        -1.04828
C         40.30460        20.24078        -0.38919
C         39.02717        21.03749        -0.54658
C         40.16530        23.05235         0.51571
C         38.94907        22.42527        -0.05554
C         40.24549        24.52754         0.50925
C         38.99246        25.24572         0.35098
C         40.26910        27.36139         0.37042
C         38.97991        26.65668         0.38901
C         40.24128        28.84641         0.50177
C         38.95449        29.55802         0.62098
C         40.26972        31.67874         0.76643
C         38.98713        30.98215         0.67184
C         40.28903        33.10141         0.81569
C         39.06984        33.85758         0.76416
C         40.30736        35.91065         1.31286
C         39.01437        35.22555         1.08461
C         40.36771        37.40866         1.44992
C         39.06918        38.15581         1.57616
C         40.20456        40.26278         0.76323
C         38.99551        39.58577         1.26531
C         40.26288        41.73969         0.84267
C         39.01758        42.42916         1.08452
C         40.24889        44.60277         0.73211
C         39.04343        43.92176         1.31276
C         40.27267        45.95519         0.51392
C         38.98798        46.61569         0.23583
C         40.27907        48.81482         0.04043
C         39.01730        48.05618        -0.12299
C         40.23891        50.20692        -0.34996
C         39.03301        50.73344        -0.87228
C         40.31159        52.85416        -1.47564
C         39.11996        51.99952        -1.62500
C         40.28075        54.16883        -1.91096
C         39.05820        54.80883        -2.33799
C         40.31042        56.88997        -2.79823
C         39.12278        56.18414        -2.74904
C         42.78121        16.02757        -0.94911
C         41.53718        16.65791        -0.89512
C         42.76494        18.73760         0.00007
C         41.44581        17.99765        -0.30407
C         42.73297        20.21127         0.14677
C         41.52735        20.86439         0.17273
C         42.74225        22.96951         0.89995
C         41.44404        22.25347         0.66967
C         42.74422        24.48109         0.91009
C         41.46356        25.18894         0.66280
C         42.73466        27.29958         0.72218
C         41.52554        26.62206         0.62759
C         42.75855        28.75301         0.99356
C         41.47135        29.52485         0.99223
C         42.75207        31.64533         0.92076
C         41.49572        30.98958         0.87410
C         42.76940        33.06641         0.88162
C         41.54219        33.75556         0.87963
C         42.80088        35.95097         0.67160
C         41.51307        35.21956         0.76273
C         42.81740        37.41735         0.88849
C         41.59536        38.10380         1.03493
C         42.77346        40.30255         0.64980
C         41.50646        39.51349         0.63897
C         42.71804        41.71665         0.10063
C         41.45446        42.39520         0.60239
C         42.77769        44.61405         0.46209
C         41.45319        43.85122         0.45348
C         42.71944        46.05777         0.67671
C         41.50845        46.70648         0.45811
C         42.70842        48.91586         0.56332
C         41.45540        48.15609         0.36131
C         42.69904        50.39003         0.14629
C         41.46220        50.95808        -0.41421
C         42.79320        52.90960        -1.12220
C         41.52116        52.24784        -0.96236
C         42.80701        54.19974        -1.91669
C         41.52331        54.99677        -1.65902
C         42.74862        57.02408        -2.40683
C         41.53392        56.32910        -2.36277
C         43.98291        16.71243        -0.68097
C         45.24585        18.83113        -0.24251
C         44.02614        18.06954        -0.33514
C         45.24529        20.18368         0.17306
C         43.99698        20.91804         0.33525
C         45.29006        23.02466         0.89143
C         44.00741        22.27013         0.60347
C         45.24744        24.49879         0.52308
C         44.02123        25.19907         0.65268
C         45.21711        27.34577         0.52211
C         43.99741        26.60893         0.62968
C         45.22464        28.78175         0.62344
C         44.01763        29.50048         0.84283
C         45.24296        31.62589         0.83769
C         44.00094        30.91096         0.88801
C         45.26432        33.05673         0.87525
C         44.03226        33.77809         0.85786
C         45.27978        35.87774         0.71608
C         44.05615        35.18217         0.75756
C         45.26295        37.32750         0.40828
C         44.02273        38.08005         0.63295
C         45.30660        40.24187         0.22062
C         44.05951        39.54345         0.64095
C         45.28471        41.75880         0.27607
C         43.99976        42.48440         0.45437
C         45.25409        44.54805         1.06929
C         44.01000        43.82839         0.68206
C         45.27236        46.05272         1.08912
C         43.96971        46.79824         0.95166
C         45.21966        48.90995         0.51137
C         44.00812        48.22793         0.61183
C         45.18734        50.30326         0.11353
C         44.00272        50.98585        -0.18749
C         45.28451        52.90951        -1.27280
C         43.98947        52.28513        -0.80336
C         45.24423        54.42366        -1.32973
C         44.03870        55.05695        -1.66952
C         43.94676        56.43204        -1.98852
C         47.69139        18.83893        -0.41902
C         46.50733        18.23168        -0.64323
C         47.75884        20.10686         0.39284
C         46.48033        20.90486         0.29141
C         47.71297        23.02733         0.11305
C         46.51396        22.29789         0.39877
C         47.69331        24.48241         0.01265
C         46.43756        25.20379         0.25414
C         47.62986        27.38755         0.02801
C         46.42983        26.64506         0.25575
C         47.66536        28.78586         0.22057
C         46.45547        29.49305         0.53805
C         47.71270        31.62377         0.70563
C         46.46789        30.91220         0.69852
C         47.75087        33.03464         0.88078
C         46.50779        33.76592         0.90831
C         47.73822        35.95516         1.09954
C         46.49453        35.18921         0.85067
C         47.81475        37.39708         0.80773
C         46.58186        38.08815         0.40791
C         47.76732        40.26282         0.50815
C         46.57713        39.55523         0.45423
C         47.76006        41.71468         0.52378
C         46.56340        42.41732         0.54110
C         47.80327        44.60415         0.74422
C         46.56161        43.83313         0.94081
C         47.76211        46.03208         0.67170
C         46.53150        46.76882         0.76860
C         47.74619        48.85482         0.40370
C         46.50347        48.17435         0.59418
C         47.77292        50.32557         0.32473
C         46.44590        51.07259         0.09560
C         47.70601        53.07875        -0.59678
C         46.50462        52.37568        -0.55857
C         47.66800        54.47319        -0.96135
C         46.48224        55.11981        -1.22050
C         50.24281        20.28002         0.11747
C         48.99767        20.91365         0.09828
C         50.11700        22.98963        -0.62561
C         48.90786        22.30664        -0.13766
C         50.08014        24.51272        -0.74021
C         48.83473        25.19021        -0.33206
C         50.09229        27.39679        -0.68191
C         48.74587        26.65737        -0.68778
C         50.13925        28.85958        -0.28705
C         48.89947        29.53629         0.16708
C         50.21371        31.60709         0.67295
C         48.92798        30.88763         0.50270
C         50.22943        33.08414         0.67944
C         49.01129        33.73704         0.88856
C         50.33111        35.92056         1.14165
C         49.03532        35.17347         1.22009
C         50.30208        37.43935         1.03111
C         48.99972        38.11985         0.84211
C         50.22579        40.26066         0.53035
C         49.01216        39.54666         0.62218
C         50.21996        41.71164         0.49316
C         49.01595        42.42991         0.57851
C         50.23882        44.59233         0.49137
C         49.00425        43.88000         0.59828
C         50.22675        46.01516         0.42468
C         48.99231        46.73257         0.46371
C         50.22498        48.86009         0.11611
C         48.97759        48.15745         0.32879
C         50.22791        50.27800        -0.10394
C         49.00670        51.01182        -0.08107
C         50.21495        53.06309        -0.55939
C         48.97498        52.39640        -0.35283
C         51.43744        20.98565        -0.10006
C         52.61896        23.08350        -0.73363
C         51.42240        22.32785        -0.48653
C         52.59672        24.51978        -0.76467
C         51.36805        25.24041        -0.68508
C         52.59805        27.36534        -0.61494
C         51.37106        26.64724        -0.62713
C         52.61970        28.79700        -0.41498
C         51.45150        29.48203        -0.07145
C         52.67879        31.69337         0.02254
C         51.50991        30.88116         0.39066
C         52.69125        33.07825         0.18686
C         51.48218        33.79509         0.55545
C         52.73057        35.95161         0.47020
C         51.53249        35.20016         0.68484
C         52.73152        37.38745         0.41970
C         51.51275        38.14061         0.55314
C         52.67072        40.28810         0.06152
C         51.45301        39.52954         0.39391
C         52.69033        41.73961         0.30865
C         51.47033        42.43616         0.43391
C         52.70855        44.56623         0.40378
C         51.46806        43.86498         0.44532
C         52.69479        46.01466         0.30182
C         51.46640        46.72433         0.28680
C         52.69307        48.84086        -0.13445
C         51.45545        48.14704         0.09541
C         52.69459        50.24655        -0.33963
C         51.45509        50.97090        -0.33219
C         51.40817        52.37799        -0.53178
C         55.04353        23.11550        -1.00355
C         53.86112        22.41842        -0.89172
C         55.07206        24.53445        -0.92541
C         53.83504        25.24063        -0.82607
C         55.07480        27.38849        -0.78860
C         53.83678        26.66888        -0.74122
C         55.08286        28.83284        -0.70753
C         53.87266        29.50463        -0.50881
C         55.14848        31.74595        -0.60046
C         53.82456        30.97905        -0.54334
C         55.15114        33.15012        -0.17827
C         53.93332        33.82534         0.05107
C         55.18803        35.95314         0.12876
C         53.95091        35.24251         0.23077
C         55.18901        37.39155         0.17614
C         53.96938        38.07558         0.22500
C         55.21996        40.29481         0.29628
C         53.98079        39.53941         0.01439
C         55.18139        41.67459         0.43656
C         53.93541        42.42246         0.37835
C         55.19116        44.61238         0.66858
C         53.91952        43.83626         0.44387
C         55.14434        45.93735        -0.05384
C         53.90848        46.71898         0.06418
C         55.18661        48.81194        -0.34068
C         53.93064        48.11079        -0.16732
C         55.13265        50.22671        -0.53778
C         53.94362        50.90797        -0.55500
C         57.57095        24.55638        -0.81998
C         56.31195        25.25873        -0.95081
C         57.55156        27.41792        -1.09159
C         56.29050        26.67134        -0.94118
C         57.58451        28.85449        -0.77715
C         56.34977        29.56558        -0.69986
C         57.62451        31.66858        -0.39580
C         56.39032        30.96676        -0.55176
C         57.63978        33.09534        -0.25942
C         56.39584        33.83813        -0.15177
C         57.66358        35.98886        -0.36772
C         56.39807        35.24260        -0.04745
C         57.66878        37.42684         0.09108
C         56.44562        38.13287         0.18546
C         57.70013        40.25343         0.43318
C         56.45149        39.54472         0.35938
C         57.71308        41.67104         0.54306
C         56.43686        42.40297         0.85775
C         57.67654        44.53573         0.33156
C         56.45937        43.84215         0.42989
C         57.69435        45.96216         0.14769
C         56.46211        46.67218        -0.22184
C         57.68491        48.80822        -0.09381
C         56.43222        48.13844        -0.24555
C         58.76923        25.19117        -0.75124
C         60.05897        27.37534        -0.56956
C         58.87402        26.62986        -1.00526
C         60.03415        28.72608        -0.45742
C         58.81955        29.50904        -0.58976
C         60.06865        31.64896        -0.23895
C         58.84805        30.93133        -0.39853
C         60.08229        33.01536        -0.10179
C         58.87922        33.78325        -0.12475
C         60.09509        35.93910         0.17915
C         58.91221        35.21526        -0.02605
C         60.10953        37.33130         0.23766
C         58.91004        38.09965         0.21407
C         60.14359        40.27222         0.36537
C         58.93095        39.53622         0.35301
C         60.14301        41.64996         0.41229
C         58.92850        42.38530         0.50274
C         60.11399        44.60144         0.59349
C         58.93040        43.84149         0.48683
C         60.10080        45.98836         0.52285
C         58.88923        46.69008         0.27142
C         58.85614        48.12345         0.12908
O         40.65518        39.72615        -0.54443
O         42.11310        44.25288        -0.81163
O         39.97932        20.93147        -1.68191
O         41.98905        35.66954        -0.55028
O         53.29084        39.92560        -1.22957
O         42.01484        29.04410         2.26126
O         42.77131        23.70582         2.17461
O         38.35217        37.74484         2.76916
O         40.52256        22.39710         1.80184
O         45.25963        41.01330        -1.00956
O         49.93517        23.66048        -1.92465
O         48.28479        35.54182         2.41068
O         54.33401        31.52899        -1.80462
O         39.02877        47.02675        -1.19787
O         34.71921        25.27074        -1.57715
O         40.41513        28.24215        -0.82941
O         41.98600        18.08358         1.05944
O         35.84355        51.83812        -3.25212
O         31.96298        24.74292         0.92227
O         34.50227        26.89118         1.60905
O         45.90429        44.00770         2.26947
O         58.31876        27.05972        -2.28723
O         40.57243        36.50865         2.61211
O         43.50020        40.15381         1.89558
O         28.43908        36.11099        -0.89658
O         47.09435        51.02452         1.41712
O         28.02060        40.99348         3.13261
O         24.21510        38.46268         3.25506
O         55.76511        45.99906        -1.35735
O         27.21739        44.70779         2.45154
O         50.06561        28.42492        -1.72659
O         38.72241        51.89514        -3.04293
O         35.38710        45.59922         2.44091
O         44.57296        46.54829         2.28312
O         34.76279        33.71721        -1.12070
O         51.03408        31.05617         1.78035
O         50.54252        36.76916         2.31526
O         42.58154        49.99107         1.55150
O         27.00245        48.78148         0.78464
O         45.96551        37.60150        -0.86191
O         35.18042        49.50764         1.48846
H         34.65400        48.88712         2.05613
O         30.15466        43.91558        -1.04074
H         30.90565        44.28764        -1.55070
O         57.67637        36.06936        -1.85385
H         58.49129        36.55367        -2.10750
O         45.40395        52.48096        -2.69522
H         46.23318        52.87444        -3.04421
O         31.51386        38.14710         2.90360
H         31.55211        37.22028         3.21941
O         24.05260        30.63238         1.18298
H         24.02804        31.47292         1.68878
O         24.44121        27.44801        -3.73994
H         25.28248        27.05883        -4.06192
O         31.47355        39.59535        -0.44344
H         31.39105        40.52405        -0.74664
O         37.99863        33.24861        -1.25579
H         37.09978        33.18017        -1.64753
O         35.37576        41.79073         3.30490
H         34.58785        41.31473         3.64366
O         55.20905        44.95171         2.09956
H         55.38258        44.10193         2.57720
O         47.86445        19.69691         1.80084
H         47.01090        19.28328         2.05107
O         45.41757        23.02056         2.35702
H         44.54529        23.32847         2.71143
O         42.84461        53.82166        -3.31515
H         43.64708        53.26005        -3.43771
O         33.59410        47.36490         2.22690
H         33.95131        46.70880         2.87641
O         48.29811        26.63039        -2.08260
H         48.67557        27.43452        -2.51275
O         42.61673        41.61572        -1.33207
H         42.46866        42.52786        -1.67575
O         39.19597        44.08182         2.77457
H         38.39383        43.70534         3.19810
O         56.35904        42.44784         2.36275
H         57.26151        42.66251         2.68590
O         41.53600        55.29608        -0.22705
H         40.76844        55.87344        -0.03251
H         22.10889        27.16000        -2.00288
H         22.06204        29.35546        -0.90438
H         22.02817        31.36091        -0.89118
H         22.03809        33.74466        -0.36279
H         22.01451        35.08486         1.21288
H         22.12638        37.08993         2.68893
H         22.08742        39.93784         2.84283
H         22.06344        42.17184         1.73502
H         22.08421        43.56177         0.35399
H         22.08269        45.77251        -0.71624
H         25.42923        23.79888        -2.07647
H         23.38883        25.07229        -2.46322
H         25.18722        49.33112        -1.31293
H         23.23240        47.84503        -1.41011
H         27.09486        22.85353        -2.16065
H         26.94190        50.41752        -1.46651
H         29.13725        21.59390        -1.86455
H         29.06935        51.42459        -2.07492
H         32.81875        19.36539        -1.63129
H         30.73371        20.59231        -1.66676
H         32.73106        53.65674        -2.34208
H         30.63287        52.46666        -1.97596
H         34.48313        18.41801        -1.68535
H         34.43560        54.71385        -2.33138
H         36.58619        17.21369        -1.68916
H         36.54244        55.85882        -2.48994
H         40.35796        15.04484        -1.76943
H         38.25392        16.28332        -1.80706
H         40.31311        57.91130        -3.20849
H         38.21044        56.67512        -3.11340
H         42.83695        14.98859        -1.30554
H         42.76255        58.06231        -2.77187
H         44.92107        16.16146        -0.83267
H         44.85077        57.05736        -1.96567
H         48.62665        18.36758        -0.75475
H         46.48767        17.27409        -1.18202
H         48.59050        55.06701        -0.93628
H         46.50103        56.20888        -1.36622
H         50.29789        19.21219         0.36986
H         50.23678        54.14476        -0.74433
H         52.39063        20.45406         0.02373
H         52.33639        52.94264        -0.68736
H         55.97268        22.55089        -1.15155
H         53.88557        21.32192        -0.94649
H         56.06335        50.78463        -0.70747
H         53.96504        51.99107        -0.73171
H         57.55076        23.47098        -0.65445
H         57.72033        49.90551        -0.14163
H         59.68118        24.63307        -0.49247
H         60.97130        26.81327        -0.32035
H         60.95749        29.23770        -0.15500
H         61.02771        31.11539        -0.24430
H         61.05078        33.52222         0.00118
H         61.04969        35.41147         0.31303
H         61.07587        37.83186         0.38041
H         61.10686        39.74946         0.29873
H         61.10306        42.18131         0.37127
H         61.07561        44.09504         0.75457
H         61.03804        46.55278         0.62750
H         59.79920        48.67903         0.23375
