         410
 CSIRO Nanostructure Databank - Neutral Graphene Oxide Data Set
C         28.03006        27.49502         1.28432
C         27.99211        28.89661         1.04852
C         26.77682        29.62219         1.12697
C         27.99490        31.71001         0.83075
C         26.78913        31.00060         0.99514
C         27.96762        33.19244         0.91942
C         26.77386        33.91999         0.46045
C         27.99972        36.04762         0.32211
C         26.81738        35.25727         0.20089
C         27.98404        37.43217         0.07432
C         26.76801        38.17741        -0.07745
C         27.99378        40.28712        -0.02573
C         26.77225        39.54698        -0.09760
C         28.02152        41.70746         0.17046
C         26.81918        42.48009         0.34050
C         28.07624        44.51581         0.82905
C         26.84457        43.82402         0.61852
C         28.15075        45.88807         1.06754
C         30.44277        27.42451         0.97082
C         29.25277        26.81051         1.33404
C         30.41968        28.82385         0.53853
C         29.19892        29.60159         0.77422
C         30.50785        31.72236         0.67555
C         29.22986        31.01439         0.73264
C         30.54720        33.18078         0.92664
C         29.25562        33.94503         1.04656
C         30.51666        36.04541         0.23160
C         29.28431        35.47456         0.90829
C         30.46376        37.44260        -0.07288
C         29.23148        38.14857        -0.00874
C         30.46113        40.27601        -0.19832
C         29.22163        39.57171        -0.08278
C         30.49056        41.68607        -0.02634
C         29.27341        42.35539         0.27777
C         30.65050        44.50209         0.66337
C         29.31186        43.73562         0.76614
C         30.57851        45.96589         0.66526
C         29.37091        46.58625         0.99696
C         32.92371        24.63679         0.53708
C         31.75870        25.29662         0.69152
C         32.98866        27.46950         0.72010
C         31.75523        26.72066         1.18528
C         33.00314        28.85760         0.52554
C         31.72387        29.57924         0.33848
C         32.96367        31.74580         0.25031
C         31.70942        31.05145         0.47968
C         32.97594        33.14419         0.08658
C         31.81106        33.92973         0.52538
C         32.89393        35.98755        -0.41827
C         31.71797        35.35468         0.12766
C         32.86469        37.41587        -0.65873
C         31.66711        38.13450        -0.42344
C         32.84701        40.28191        -0.81062
C         31.66271        39.56348        -0.47133
C         32.83723        41.71221        -0.77415
C         31.72216        42.40463        -0.24807
C         32.92245        44.57667        -0.26466
C         31.78484        43.82633         0.00772
C         32.96495        45.99702        -0.03418
C         31.78273        46.69459         0.34994
C         32.99629        48.79397         0.22243
C         31.82016        48.10809         0.42588
C         35.41037        23.10991         0.52752
C         35.42146        24.55987         0.50018
C         34.20932        25.31174         0.65890
C         35.46721        27.47467         0.68114
C         34.20334        26.72684         0.70291
C         35.47298        28.91827         0.33185
C         34.21339        29.59136         0.30163
C         35.37701        31.69056        -0.30816
C         34.17996        31.00185         0.06805
C         35.31143        33.06153        -0.64765
C         34.12102        33.81908        -0.43767
C         35.11670        35.91423        -1.53435
C         34.05778        35.23501        -0.68349
C         35.26568        37.39486        -1.26035
C         34.03617        38.13848        -1.06914
C         35.20784        40.25475        -1.70137
C         34.00966        39.54603        -1.19254
C         35.24398        41.79349        -1.83915
C         33.97107        42.48325        -1.32778
C         35.37243        44.62277        -0.93843
C         34.04823        43.95684        -0.99041
C         35.40081        46.00234        -0.61691
C         34.17960        46.71099        -0.26901
C         35.45548        48.84305        -0.15026
C         34.20398        48.11578        -0.08517
C         35.49959        50.23391         0.09927
C         37.78596        23.01608        -0.12059
C         36.51826        22.37720         0.26634
C         37.84129        24.49271        -0.05867
C         36.65249        25.21121         0.26443
C         37.86564        27.41096        -0.13090
C         36.72435        26.66895         0.45885
C         37.99008        28.88678         0.22387
C         36.66179        29.59778         0.03329
C         37.84852        31.63299        -0.72289
C         36.64432        30.97641        -0.35241
C         37.84066        33.03441        -1.06913
C         36.51849        33.71098        -1.20569
C         37.71821        35.92881        -1.58870
C         36.44895        35.16791        -1.58990
C         37.74032        37.31141        -1.48189
C         36.48032        38.03541        -1.35617
C         37.77220        40.23955        -1.44515
C         36.51088        39.48972        -1.62457
C         37.72741        41.67864        -1.35954
C         36.54675        42.43000        -1.34155
C         37.80507        44.58884        -1.05681
C         36.57040        43.87642        -1.14004
C         37.82994        45.98249        -0.85649
C         36.63864        46.71389        -0.63359
C         37.89623        48.86485        -0.33363
C         36.67167        48.14580        -0.38968
C         37.92632        50.24066        -0.01501
C         36.69876        50.91379         0.17910
C         40.32491        20.26667         0.74396
C         39.15395        20.88016         0.52294
C         40.36212        23.04071         0.04315
C         39.10904        22.25236        -0.04247
C         40.32255        24.45911        -0.14806
C         39.07476        25.15057        -0.23776
C         40.36871        27.32921        -0.52155
C         39.08996        26.60984        -0.45392
C         40.34135        28.77460        -0.68824
C         39.15313        29.52418        -0.49323
C         40.28897        31.54373        -1.26669
C         39.10502        30.89835        -0.81446
C         40.22785        32.93413        -1.87825
C         38.97680        33.69820        -1.49530
C         40.25402        35.93434        -1.77772
C         38.94866        35.14729        -1.81511
C         40.21352        37.38703        -1.50245
C         38.98280        38.06774        -1.45539
C         40.22800        40.20693        -1.08930
C         38.97254        39.51395        -1.34743
C         40.23868        41.59496        -1.00364
C         39.03828        42.37098        -1.35667
C         40.35279        44.55858        -0.85648
C         39.08659        43.87812        -1.26047
C         40.37004        45.93389        -0.77522
C         39.12362        46.70219        -0.94727
C         40.43246        48.81181        -0.20357
C         39.16650        48.18635        -0.66067
C         40.41663        50.20067         0.14080
C         39.19897        50.94087         0.13953
C         40.45164        52.98475         0.59603
C         39.25054        52.33506         0.35061
C         42.81814        20.34559         1.01002
C         41.62325        20.88016         0.27575
C         42.78871        23.13775         0.38995
C         41.57247        22.39311         0.28534
C         42.78120        24.53869         0.10216
C         41.55000        25.18775        -0.18004
C         42.82856        27.26150        -0.74691
C         41.54112        26.60716        -0.45273
C         42.82351        28.72796        -1.09834
C         41.53789        29.45954        -1.00454
C         42.79713        31.49751        -1.62712
C         41.51173        30.84426        -1.25054
C         42.79762        32.97209        -1.87461
C         41.51729        33.69608        -1.56640
C         42.77574        35.92824        -1.65882
C         41.52578        35.19084        -1.49835
C         42.71283        37.37584        -1.67338
C         41.45214        38.08365        -1.36862
C         42.72129        40.12100        -0.78603
C         41.47424        39.45674        -1.05828
C         42.69355        41.50717        -0.29126
C         41.41059        42.31046        -0.47664
C         42.74448        44.39383        -0.24770
C         41.53320        43.77934        -0.56711
C         42.88783        45.85670        -0.36004
C         41.63406        46.67725        -0.62748
C         42.85244        48.70170         0.24623
C         41.62719        48.09094        -0.18668
C         42.86311        50.10321         0.52179
C         41.65005        50.85324         0.43740
C         42.89779        52.90642         0.97135
C         41.66083        52.26025         0.66999
C         43.92156        21.09866         1.20395
C         45.20266        23.23512         0.89945
C         43.99062        22.49146         0.80172
C         45.21995        24.63581         0.58722
C         44.01805        25.28295         0.16111
C         45.25000        27.40220        -0.15953
C         44.05866        26.64063        -0.23208
C         45.27696        28.79406        -0.53180
C         44.08765        29.48492        -0.95189
C         45.28789        31.61914        -1.22591
C         44.07936        30.85233        -1.24405
C         45.33257        33.00866        -1.45126
C         44.10343        33.72538        -1.86215
C         45.31262        35.95160        -1.41418
C         44.07045        35.24843        -1.81210
C         45.29010        37.34701        -1.23050
C         44.05718        38.13088        -1.45855
C         45.18459        40.14287        -0.51997
C         43.96205        39.48436        -0.89763
C         45.17337        41.52749        -0.16167
C         43.95327        42.24755        -0.14786
C         45.16473        44.31888         0.37524
C         43.94201        43.64195         0.03770
C         45.18533        45.74841         0.56693
C         44.05000        46.52174         0.26387
C         45.24122        48.57771         0.93067
C         44.04532        47.93109         0.45852
C         45.26992        50.00116         1.07812
C         44.07825        50.76585         0.88501
C         44.05707        52.18274         1.08157
C         47.58765        23.34671         1.40696
C         46.42922        22.61726         1.27745
C         47.61665        24.74924         1.17191
C         46.42459        25.38995         0.71204
C         47.60757        27.56462         0.51726
C         46.43806        26.78655         0.34838
C         47.67231        28.90475         0.05396
C         46.50435        29.49808        -0.49157
C         47.85749        31.62399        -1.02380
C         46.54508        30.85827        -1.06403
C         47.78750        33.10505        -1.05022
C         46.54887        33.76583        -1.28565
C         47.72782        35.93365        -0.97753
C         46.51958        35.21036        -1.23976
C         47.70527        37.35261        -0.84254
C         46.47539        38.05530        -0.90531
C         47.63159        40.17125        -0.32889
C         46.42719        39.47642        -0.63176
C         47.60263        41.45970         0.19577
C         46.37922        42.18280         0.21655
C         47.56641        44.23211         0.96881
C         46.35263        43.57660         0.53655
C         47.52970        45.61177         1.30657
C         46.37664        46.38330         1.05929
C         47.62240        48.45974         1.64391
C         46.40296        47.80967         1.23250
C         47.63304        49.88861         1.69451
C         46.50393        50.62228         1.43990
C         49.98518        24.96044         1.92745
C         48.79707        25.52269         1.45052
C         50.01922        27.79265         1.43271
C         48.72444        26.98220         1.28388
C         50.10528        29.08461         0.72573
C         48.92426        29.65952         0.11915
C         50.30175        31.65689        -0.45105
C         49.00893        30.95418        -0.37903
C         50.26742        33.13130        -0.75301
C         48.97568        33.83989        -0.86138
C         50.21714        35.99809        -0.82212
C         48.97536        35.25103        -0.85453
C         50.16109        37.42511        -0.81459
C         48.94120        38.06841        -0.70685
C         50.16518        40.20579        -0.17457
C         48.93358        39.57019        -0.77247
C         50.13711        41.46211         0.43997
C         48.80816        42.01722         0.91002
C         49.98592        44.14320         1.47386
C         48.77836        43.51388         1.04372
C         49.97308        45.47825         1.95604
C         48.66037        46.20610         2.09434
C         49.99922        48.28271         2.40528
C         48.77483        47.70377         1.97597
C         51.16932        25.69883         2.08982
C         52.46407        27.82469         1.88682
C         51.25455        27.05781         1.78334
C         52.35816        29.18993         1.58266
C         51.33167        29.76925         0.76779
C         52.76275        31.67169        -0.14053
C         51.53590        31.05889         0.12250
C         52.80058        33.14849        -0.39666
C         51.50245        33.91755        -0.45488
C         52.69976        36.10222        -0.72085
C         51.47243        35.36149        -0.76591
C         52.68379        37.49116        -0.83522
C         51.40138        38.23406        -1.10767
C         52.59755        40.34622        -0.38059
C         51.40115        39.60688        -0.47012
C         52.59838        41.61392         0.27368
C         51.35010        42.11894         0.78166
C         52.24955        43.95621         2.24239
C         51.20446        43.39277         1.49476
C         52.33797        45.31986         2.59454
C         51.15144        46.10441         2.43738
C         51.11787        47.52207         2.68485
C         54.96204        27.76549         1.84318
C         53.75343        27.27133         2.25774
C         55.13180        28.92263         0.97939
C         54.18593        29.96982         1.00427
C         55.09977        31.01789        -0.92481
C         54.03639        30.95171         0.00106
C         55.04788        33.31261        -1.57431
C         53.99162        33.88257        -0.90506
C         55.21188        36.17132        -1.20667
C         53.99353        35.36575        -0.70592
C         55.08250        37.63759        -1.40061
C         53.87805        38.27987        -1.00073
C         54.83120        40.42203        -1.58536
C         53.79098        39.70744        -0.97002
C         54.77480        42.58393        -0.69939
C         53.83405        42.43527         0.34772
C         54.96246        44.38177         1.45601
C         54.06787        43.28918         1.44578
C         54.82563        45.43376         2.45795
C         53.63317        45.86929         2.96499
C         56.14351        29.01141        -0.00184
C         56.14076        30.06808        -0.91143
C         56.13345        34.08540        -2.13075
C         56.21945        35.42817        -1.97334
C         56.12542        38.40663        -1.93627
C         55.97828        39.78573        -2.08035
C         55.78200        43.56590        -0.66823
C         55.86165        44.48483         0.37699
O         52.18477        33.74016         0.83148
O         39.20211        47.67938        -2.04506
O         38.12209        27.06629        -1.50726
O         49.00865        27.75602         2.50298
O         36.37074        27.11564         1.81623
O         38.40517        22.40549        -1.31499
O         54.72872        41.79916        -1.84853
O         53.32660        30.05520         2.11202
O         55.13239        31.95974        -1.94302
O         30.98652        29.06861        -0.82835
O         44.24552        34.50733        -3.08710
O         35.79807        39.68446        -2.91456
O         41.78808        41.75436         0.84245
O         33.56311        43.49883        -2.29994
O         53.30254        43.09734         2.61015
O         39.21795        43.21669        -2.56538
O         31.50028        33.62504         1.94003
O         42.89961        27.71091        -2.15569
O         28.50329        33.59528         2.26035
O         43.47642        37.98681        -2.77949
O         50.51482        32.17265        -1.83372
O         47.41642        30.95935        -2.25131
O         30.21042        43.89218         1.91596
O         55.03405        35.81206         0.20842
O         39.65603        35.53581        -3.04721
O         36.37827        34.12833        -2.63228
O         49.03014        39.76524        -2.19561
O         42.74953        32.04710        -2.99211
O         41.50698        34.32077        -0.25069
O         42.59351        46.38834        -1.69828
O         40.18741        32.77747        -3.31625
H         39.29652        32.46376        -3.57509
O         34.54632        35.88122        -2.88022
H         34.92898        35.08902        -3.32728
O         48.26373        45.98476         3.51918
H         48.95846        46.40562         4.07102
O         41.78046        20.47683        -1.12596
H         41.02570        20.85526        -1.62633
O         31.89517        26.64118         2.65439
H         32.74336        26.18270         2.83895
O         51.35380        38.46943        -2.55278
H         50.49947        38.99244        -2.69025
O         35.28486        42.09160        -3.25273
H         35.80284        41.37234        -3.68524
O         38.32332        28.96384         1.64267
H         37.61483        28.47092         2.12778
O         29.34998        36.01208         2.26336
H         28.88747        35.35984         2.84092
O         48.64879        41.53173         2.30154
H         49.38984        41.90484         2.82617
H         27.09539        26.96709         1.51904
H         25.83516        29.08786         1.31390
H         25.84333        31.55183         1.08214
H         25.84540        33.36467         0.27330
H         25.90290        35.73725        -0.17535
H         25.80377        37.65227        -0.09376
H         25.81304        40.07974        -0.14450
H         25.84562        41.98583         0.22345
H         25.90258        44.38503         0.70466
H         27.22132        46.45935         1.20551
H         29.26237        25.76202         1.66413
H         29.33147        47.67918         1.09986
H         32.90548        23.58138         0.23300
H         30.80247        24.77268         0.55162
H         32.98214        49.88630         0.32009
H         30.91335        48.67269         0.67744
H         34.48244        22.58706         0.79522
H         34.57450        50.80047         0.26125
H         36.46243        21.28002         0.27921
H         36.68105        51.98724         0.40613
H         40.34905        19.25031         1.16613
H         38.20871        20.37840         0.77660
H         40.46514        54.07237         0.75554
H         38.33036        52.93287         0.31769
H         42.80254        19.29218         1.32729
H         42.90572        53.99418         1.13118
H         44.78915        20.64698         1.70474
H         44.98437        52.71291         1.33430
H         48.50351        22.82577         1.71491
H         46.46414        21.53784         1.47292
H         48.55592        50.41760         1.96617
H         46.56429        51.71540         1.51778
H         50.03236        23.88370         2.13814
H         50.07855        49.37384         2.51056
H         52.06970        25.16691         2.42660
H         52.03335        48.02431         3.02566
H         55.86229        27.16873         2.05863
H         53.75637        26.30929         2.79254
H         55.72888        46.02027         2.69089
H         53.64473        46.77733         3.58809
H         56.91991        28.23625        -0.06180
H         56.92733        30.14023        -1.67348
H         56.88184        33.54586        -2.72687
H         57.00906        35.98189        -2.50016
H         57.05791        37.93216        -2.26958
H         56.76519        40.38395        -2.55711
H         56.46798        43.63979        -1.52178
H         56.59169        45.30515         0.34044
