         424
 CSIRO Nanostructure Databank - Neutral Graphene Oxide Data Set
C          1.40298         3.52173        -1.41259
C          0.25395         4.23511        -1.73249
C          1.25280         6.29332        -0.84858
C          0.18049         5.60331        -1.47306
C          1.15191         7.71577        -0.56904
C         -0.00531         8.44994        -0.79166
C          1.07702        10.62218        -0.34967
C         -0.06844         9.84780        -0.61561
C          1.07970        12.03994        -0.51309
C         -0.11748        12.80518        -0.74712
C          1.21064        14.83912        -1.36983
C         -0.07798        14.12480        -1.06593
C          1.21203        16.32372        -1.03574
C          0.02155        17.05571        -1.13198
C          1.16954        19.15774        -0.66911
C         -0.01054        18.43202        -0.93119
C          1.15176        20.59380        -0.48751
C         -0.05768        21.33297        -0.47445
C          1.14364        23.43481        -0.14376
C         -0.06173        22.70342        -0.30795
C          1.15021        24.87178         0.02319
C         -0.05421        25.60768        -0.00826
C          1.14433        27.69109         0.36206
C         -0.05472        26.98168         0.16027
C          1.08422        29.14122         0.67244
C         -0.05960        29.96295         0.25185
C          1.19230        32.04188         0.65119
C         -0.01797        31.31749         0.31478
C          1.17904        33.51234         0.70098
C         -0.02856        34.25048         0.81926
C          1.18323        36.36742         0.76022
C         -0.02592        35.63518         0.87336
C          1.22302        37.79577         0.78100
C          3.72121         3.46407        -0.59843
C          2.51363         4.18346        -0.82644
C          3.56871         6.21385         0.23508
C          2.42818         5.57314        -0.52826
C          3.61437         7.71817         0.06688
C          2.27272         8.41653         0.16758
C          3.51285        10.56909        -0.01475
C          2.33137         9.90314        -0.11806
C          3.51178        12.04813         0.03346
C          2.32052        12.77588        -0.47129
C          3.72739        14.82964        -0.93089
C          2.40253        14.11150        -0.79427
C          3.66612        16.31136        -0.61837
C          2.42467        17.01261        -0.75173
C          3.62496        19.16309        -0.41816
C          2.40519        18.44447        -0.59938
C          3.61384        20.57995        -0.31714
C          2.37546        21.29962        -0.31778
C          3.60673        23.42891         0.03468
C          2.37067        22.71986        -0.14647
C          3.60983        24.84260         0.21582
C          2.38551        25.57395         0.20636
C          3.63384        27.73309         0.48385
C          2.38066        27.00488         0.37148
C          3.66424        29.14097         0.68967
C          2.39625        29.88044         0.90164
C          3.65790        32.06717         1.12443
C          2.37816        31.34988         0.79447
C          3.65903        33.50433         0.66407
C          2.39832        34.21335         0.63075
C          3.62061        36.35484         0.43259
C          2.40703        35.64902         0.60064
C          3.64868        37.77092         0.46154
C          2.41132        38.47332         0.64899
C          6.15802         3.44715        -0.28255
C          4.92464         4.13267        -0.27856
C          6.09207         6.25428         0.13882
C          4.90086         5.55053        -0.02532
C          6.07597         7.70784         0.27371
C          4.79387         8.39824         0.12206
C          6.02756        10.61710         0.43018
C          4.84719         9.87740        -0.16560
C          6.06529        11.97626         0.34402
C          4.81760        12.75186         0.13640
C          6.09306        14.83303        -0.10730
C          4.89336        14.15808        -0.25835
C          6.10109        16.27503        -0.20739
C          4.86941        16.99369        -0.36384
C          6.06662        19.15422        -0.15625
C          4.87311        18.44893        -0.29883
C          6.10333        20.58849        -0.19660
C          4.84055        21.31093        -0.19726
C          6.13603        23.39206         0.29399
C          4.82729        22.69704        -0.00768
C          6.06488        24.87882         0.11565
C          4.87503        25.55944         0.25064
C          6.08648        27.71459         0.39888
C          4.86838        27.02278         0.34894
C          6.11890        29.13033         0.52203
C          4.88555        29.85814         0.67058
C          6.09425        32.01145         0.64221
C          4.90996        31.30630         0.74959
C          6.10725        33.46087         0.53679
C          4.84654        34.16670         0.47337
C          6.13544        36.33836         0.26694
C          4.84779        35.59940         0.00805
C          6.12582        37.78182         0.26041
C          4.88218        38.46567         0.32482
C          8.60628         3.44696         0.00413
C          7.37190         4.12888        -0.04362
C          8.54569         6.23349         0.47475
C          7.34894         5.55373         0.16465
C          8.46745         7.65506         0.85034
C          7.22813         8.40073         0.57230
C          8.52885        10.60564         0.79578
C          7.20750         9.86009         0.98666
C          8.52895        11.99332         0.66339
C          7.30713        12.72891         0.45993
C          8.60128        14.79521        -0.11558
C          7.30871        14.09750         0.20552
C          8.52688        16.28267         0.06438
C          7.33761        16.97006        -0.03268
C          8.57717        19.17923        -0.25900
C          7.34075        18.45561         0.21617
C          8.58188        20.57260        -0.27800
C          7.32199        21.27575        -0.25221
C          8.60986        23.45866        -0.21989
C          7.29180        22.76780        -0.48740
C          8.61534        24.84563        -0.09920
C          7.32531        25.62885        -0.24857
C          8.63096        27.71450         0.23627
C          7.37703        26.93370         0.53102
C          8.60386        29.12373         0.32910
C          7.36785        29.80990         0.51027
C          8.58341        31.97273         0.21872
C          7.39679        31.27779         0.83517
C          8.55429        33.45483         0.17258
C          7.29244        34.18148         0.39319
C          8.59800        36.33751         0.22148
C          7.33155        35.62785         0.30134
C          8.59438        37.78357         0.19246
C          7.35482        38.47294         0.23602
C         11.04769         3.43809         0.24074
C          9.81633         4.13295         0.24048
C         11.02457         6.26437         0.66755
C          9.79253         5.55563         0.49234
C         11.03356         7.68511         0.81622
C          9.77728         8.42816         1.01461
C         11.01592        10.56597         0.76118
C          9.77215         9.89903         0.88014
C         11.07623        12.01529         0.75141
C          9.78740        12.75910         0.98717
C         11.03208        14.85650         0.53077
C          9.84461        14.17563         0.48213
C         11.02937        16.36740         0.58960
C          9.82193        16.97275        -0.08204
C         11.09965        19.17625        -0.14543
C          9.84039        18.45007        -0.30968
C         11.07753        20.58572        -0.19101
C          9.83548        21.29855        -0.27625
C         11.07596        23.43656        -0.18393
C          9.83513        22.72363        -0.22269
C         11.07537        24.86139        -0.14904
C          9.84263        25.56680        -0.04751
C         11.08412        27.71516        -0.01645
C          9.84406        27.00884         0.05034
C         11.09223        29.14007         0.10224
C          9.85987        29.84336         0.23956
C         11.08446        31.95712         0.14134
C          9.88023        31.25250         0.26230
C         11.10060        33.43433         0.27090
C          9.82861        34.19411         0.34250
C         11.07538        36.33865         0.11573
C          9.82065        35.65858         0.16292
C         11.06722        37.78437         0.12229
C          9.82669        38.46923         0.15307
C         13.50966         3.41412         0.41617
C         12.27149         4.12041         0.38911
C         13.51118         6.22664         0.61296
C         12.26564         5.54703         0.55316
C         13.54077         7.68937         0.97598
C         12.24043         8.41995         0.75347
C         13.48252        10.58706         0.32830
C         12.23076         9.82162         0.69734
C         13.56395        11.96276         0.98047
C         12.26984        12.71801         0.76699
C         13.51372        14.86617         0.56127
C         12.30413        14.16407         0.69195
C         13.52022        16.31443         0.33299
C         12.31981        17.03488         0.20182
C         13.56173        19.15148        -0.10271
C         12.32589        18.44691        -0.02225
C         13.55933        20.58845        -0.21770
C         12.32406        21.29954        -0.18120
C         13.54985        23.43248        -0.28846
C         12.31627        22.72150        -0.20854
C         13.52063        24.84974        -0.39730
C         12.31627        25.57473        -0.27695
C         13.52590        27.75196        -0.29359
C         12.31595        27.01956        -0.22997
C         13.57480        29.15287        -0.04882
C         12.32287        29.86332         0.07657
C         13.56495        32.03789         0.15413
C         12.31820        31.27683         0.08929
C         13.57166        33.40031         0.11183
C         12.31536        34.15497        -0.25621
C         13.53640        36.32442         0.07435
C         12.30484        35.63084         0.07393
C         13.52739        37.77242         0.02750
C         12.29910        38.46878         0.05789
C         15.99046         3.39039         0.68028
C         14.72379         4.09085         0.51042
C         16.01751         6.26173         0.67336
C         14.70951         5.52185         0.54156
C         15.94931         7.66005         0.02395
C         14.75669         8.44951         0.50951
C         16.02450        10.56206         0.57246
C         14.75381         9.80187         0.50478
C         16.01638        12.02970         0.39120
C         14.79895        12.72171         0.53976
C         16.01064        14.82352         0.34160
C         14.77839        14.13596         0.48100
C         16.00224        16.29049         0.49548
C         14.75121        17.02780         0.25631
C         16.04422        19.12797        -0.09595
C         14.78778        18.42468         0.03042
C         16.03920        20.53368        -0.65801
C         14.78039        21.30720        -0.34729
C         16.04796        23.44141        -0.46072
C         14.79154        22.71208        -0.37007
C         16.05214        24.84632        -0.57650
C         14.76906        25.54884        -0.72463
C         16.05191        27.76627        -0.46498
C         14.77297        27.07572        -0.65532
C         16.04173        29.16451        -0.21248
C         14.80843        29.84427         0.00685
C         16.07601        32.03784         0.02748
C         14.83863        31.28408         0.47837
C         16.07167        33.43190         0.02815
C         14.82150        34.16063         0.46927
C         15.98815        36.31407        -0.09822
C         14.78177        35.62161         0.07841
C         15.97596        37.76003        -0.18661
C         14.75705        38.45691        -0.08023
C         18.47051         3.39466         0.80160
C         17.19316         4.04126         0.60715
C         18.48522         6.21455         0.23768
C         17.18806         5.46179         0.09027
C         18.49079         7.63918         0.09164
C         17.27459         8.36078         0.13819
C         18.51394        10.56649         0.02193
C         17.31785         9.80369         0.39019
C         18.47134        11.94149        -0.01633
C         17.24467        12.70683         0.17425
C         18.47301        14.88585        -0.03687
C         17.24371        14.13961         0.16083
C         18.52826        16.27800         0.07389
C         17.30676        17.04088         0.40065
C         18.51215        19.16674        -0.09068
C         17.26039        18.47321         0.04267
C         18.49739        20.60437        -0.17290
C         17.31194        21.28991        -0.36355
C         18.50030        23.45654        -0.56804
C         17.29645        22.74122        -0.45246
C         18.50559        24.88105        -0.60704
C         17.26185        25.59087        -0.60726
C         18.50235        27.74619        -0.54530
C         17.26277        27.03443        -0.56303
C         18.50443        29.17864        -0.46889
C         17.28414        29.89038        -0.26635
C         18.50373        32.04193        -0.40973
C         17.28603        31.31872        -0.21419
C         18.49573        33.47327        -0.41139
C         17.26458        34.17445        -0.20972
C         18.44581        36.33101        -0.42161
C         17.24175        35.60712        -0.22153
C         18.41974        37.77092        -0.46165
C         17.19569        38.45498        -0.34401
C         19.64326         4.07959         0.68979
C         20.90446         6.22497         0.40665
C         19.68398         5.51188         0.43110
C         20.92298         7.60201         0.15436
C         19.74367         8.33640         0.00865
C         20.99049        10.56989        -0.09073
C         19.74197         9.79281        -0.43886
C         20.98346        11.90953        -0.13233
C         19.72286        12.65871        -0.37825
C         20.96872        14.92045        -0.36816
C         19.70860        14.16561        -0.41736
C         20.97178        16.26989        -0.23692
C         19.74634        17.01796        -0.09820
C         20.97194        19.19957        -0.20115
C         19.73479        18.44130        -0.09738
C         21.00537        20.54537        -0.15898
C         19.77731        21.38692         0.06908
C         21.01145        23.50775        -0.57461
C         19.78004        22.67103        -0.77982
C         20.97629        24.85745        -0.55379
C         19.73859        25.60448        -0.61867
C         20.94966        27.78072        -0.70136
C         19.73718        27.02883        -0.62423
C         20.94388        29.15396        -0.70180
C         19.73467        29.89616        -0.57935
C         20.92449        32.08596        -0.74943
C         19.73183        31.33372        -0.57923
C         20.91259        33.46603        -0.75518
C         19.71082        34.19831        -0.58706
C         20.86782        36.40549        -0.76069
C         19.69359        35.64623        -0.58922
C         20.83435        37.80678        -0.77677
C         19.63535        38.48708        -0.63544
O          3.93176        12.58140         1.34940
O          9.01447         7.94281         2.19834
O         14.68687        26.35781        -1.94522
O         16.80645        10.15261         1.75339
O          1.57733        29.40623         2.03194
O         16.72493        16.73226         1.71724
O         10.58774        33.84592         1.57506
O          8.42370        32.63708        -1.07203
O          9.99638        17.42274        -1.46403
O         19.61500        13.34092        -1.67575
O         16.01074        20.36498        -2.13021
H         16.88950        20.02140        -2.39980
O          7.46136        26.54766         1.94294
H          7.56653        27.36706         2.47102
O          6.99540        22.99446        -1.90759
H          7.64515        22.48163        -2.43378
O          6.42691        23.15927         1.71020
H          5.87769        23.77610         2.23842
O         13.39619        10.84090        -1.10640
H         13.45266         9.98034        -1.57351
O          7.00952         9.81936         2.43882
H          7.74092         9.26141         2.80222
O          8.77800        14.60027        -1.57261
H          9.28917        15.36713        -1.91832
O         14.86678        34.13758         1.95069
H         15.62386        34.69710         2.22798
O          7.65632        31.35819         2.28635
H          6.82434        31.12362         2.75121
O          3.27342         5.95783         1.66873
H          4.06969         6.22029         2.17959
O         14.92595        31.23296         1.94166
H         14.86967        32.17047         2.25333
O          5.11383         9.96038        -1.62302
H          4.45151         9.39944        -2.08055
O         19.78908        22.22759        -2.17163
H         19.74364        23.02488        -2.73990
O          1.36048        14.79594        -2.85568
H          1.20552        13.86650        -3.13088
O         10.84418        16.67994         2.01517
H         11.65679        16.40808         2.49157
O          9.71253        12.90185         2.46187
H         10.52935        13.36012         2.75444
O         12.19108        34.07933        -1.71577
H         12.94745        34.56294        -2.10951
O         16.98070         5.30885        -1.35980
H         17.77495         4.86353        -1.72384
O          1.90319         8.32902         1.58607
H          2.09089         7.39857         1.86870
O         13.69686        11.73090         2.41391
H         13.97759        12.56869         2.83758
O         19.78972        21.80991         1.46015
H         19.74859        21.00592         2.01881
O          7.20210        25.93383        -1.66490
H          7.08086        25.06978        -2.12574
O         15.64666         7.54932        -1.40466
H         16.17921         6.79722        -1.76858
O          3.70784        32.10869         2.60417
H          2.82118        32.38624         2.91966
O         13.72761         7.67154         2.45169
H         13.68097         8.60140         2.76707
O         16.28751         6.44107         2.07893
H         15.48426         6.85430         2.48430
O          4.04469        14.76610        -2.37646
H          3.20666        15.00059        -2.85261
O          4.75712        35.52544        -1.47347
H          4.75649        36.44861        -1.80615
O          7.42108        18.56588         1.69330
H          7.30945        19.51405         1.92308
O         19.67411         9.73767        -1.90243
H         19.68100        10.66291        -2.23162
H          1.47010         2.44590        -1.62823
H         -0.59967         3.72370        -2.19905
H         -0.73518         6.14256        -1.74849
H         -0.91340         7.95317        -1.16250
H         -1.02632        10.34457        -0.82248
H         -1.09626        12.31986        -0.62170
H         -1.02771        14.65310        -1.22793
H         -0.91989        16.54944        -1.38195
H         -0.97524        18.94911        -1.01476
H         -1.02041        20.81829        -0.59205
H         -1.02917        23.22209        -0.30171
H         -1.01540        25.09863        -0.15281
H         -1.01420        27.51579         0.16165
H         -0.95619        29.47056        -0.15059
H         -0.90324        31.89150         0.00702
H         -0.98562        33.71720         0.90324
H         -0.97412        36.17957         0.99163
H          0.28187        38.35116         0.90637
H          3.74843         2.38630        -0.81606
H          2.42649        39.57278         0.67422
H          6.17402         2.36396        -0.47246
H          4.87896        39.56566         0.34060
H          8.62765         2.35905        -0.15693
H          7.35354        39.57332         0.24169
H         11.04896         2.34783         0.09428
H          9.82685        39.56973         0.15316
H         13.49462         2.31460         0.37709
H         12.30588        39.56788         0.00773
H         15.95856         2.31434         0.91330
H         14.76251        39.55673        -0.10526
H         18.48028         2.32356         1.05471
H         17.18522        39.55407        -0.38926
H         20.59981         3.55889         0.84424
H         21.85082         5.68345         0.54688
H         21.89970         8.09840         0.07026
H         21.93295        10.03944         0.10749
H         21.91325        12.46945         0.04597
H         21.91467        14.38645        -0.53086
H         21.93451        16.79677        -0.25583
H         21.92054        18.65820        -0.31798
H         21.97939        21.05273        -0.21425
H         21.98574        23.00062        -0.52624
H         21.92360        25.40456        -0.45155
H         21.91328        27.26245        -0.78791
H         21.90408        29.67979        -0.78373
H         21.88535        31.57295        -0.88607
H         21.86454        33.99539        -0.89366
H         21.83738        35.90628        -0.88747
H         21.77076        38.36632        -0.91092
H         19.61091        39.58584        -0.65989
