         276
 CSIRO Nanostructure Databank - Neutral Graphene Oxide Data Set
C        -10.77986         0.65252        -1.78046
C         -9.74594         1.47165        -1.15190
C         -8.55032         0.75491        -0.62721
C         -7.66274         1.60585         0.30115
C         -6.41702         0.86870         0.82391
C         -5.11053         1.66789         1.05342
C         -3.82959         0.76743         0.79351
C         -2.56697         1.53047         1.15242
C         -1.26875         0.80357         1.18681
C         -0.11740         1.61428         0.62341
C          1.22051         0.87990         0.64770
C          2.36651         1.60345         0.07770
C          3.44687         0.89750        -0.60429
C          4.72334         1.64579        -0.96689
C          5.99242         0.84186        -1.29930
C          7.31807         1.54641        -0.98592
C          8.43441         0.80019        -1.21840
C         10.32076         1.68929        -0.35668
C         11.19153         0.55655        -0.04219
C         -9.80011         2.82303        -1.11827
C         -8.66495         3.71231        -0.66196
C         -7.40481         2.95158        -0.32841
C         -6.11488         3.51501        -0.44461
C         -5.01541         2.91123         0.17288
C         -3.63430         3.50066        -0.05207
C         -2.58337         3.03199         0.94786
C         -1.33053         3.83175         1.17497
C          0.00659         3.05397         1.23866
C          1.11341         3.80547         0.48151
C          2.33919         3.07237         0.00875
C          3.63204         3.79551        -0.10556
C          4.85952         3.09197        -0.57176
C          6.19587         3.71342        -0.27886
C          7.43225         2.84041        -0.16475
C          8.77545         3.66386        -0.33750
C          9.94552         2.83639         0.26306
C         -8.46529         4.83156        -1.71398
C         -7.16853         5.56968        -1.48851
C         -5.94044         4.65554        -1.49904
C         -4.57303         5.45942        -1.43147
C         -3.66187         5.00081        -0.28045
C         -2.44747         5.82943         0.03093
C         -1.31342         5.37586         0.97820
C          0.03393         6.00630         0.69996
C          1.18028         5.28642         0.65448
C          2.53796         5.94581         0.67635
C          3.71304         5.11966         0.21783
C          4.98533         5.82285         0.27854
C          6.19992         4.97515         0.57277
C          7.50984         5.72916         0.47853
C          8.67598         5.05361         0.27182
C         -7.16208         6.91268        -1.46195
C         -5.94730         7.81110        -1.45371
C         -4.67222         6.98420        -1.37824
C         -3.51127         7.66589        -1.27621
C         -2.24841         7.10309        -0.75250
C         -1.10868         7.99944        -0.38510
C          0.01728         7.50100         0.52074
C          1.30740         8.05177        -0.06229
C          2.56149         7.26430        -0.06485
C          3.85632         8.00055        -0.03301
C          5.05381         7.19627         0.30589
C          6.29701         7.88255         0.62061
C          7.47118         7.16032         0.72011
C         -6.03769         8.80273        -0.28532
C         -5.06693         9.57122         0.26275
C         -3.67451         9.59323        -0.18410
C         -2.54179         9.88885         0.50021
C         -1.18044         9.54049        -0.11501
C         -0.03319         9.68820         0.92950
C          1.34144         9.48303         0.31351
C          2.51250        10.13299         0.53811
C          3.82974         9.49671         0.24594
C          5.08728        10.04720         0.80742
C          6.22583         9.31271         0.89882
C        -10.82323        -0.68978        -1.68061
C         -9.93701        -1.48024        -0.74546
C         -8.60165        -0.73425        -0.50368
C         -7.59040        -1.47441         0.36054
C         -6.38740        -0.63765         0.84870
C         -5.08813        -1.39375         1.18248
C         -3.83042        -0.62519         1.43647
C         -2.47730        -1.38076         1.66590
C         -1.24417        -0.67770         1.11641
C         -0.08000        -1.35225         0.92606
C          1.19129        -0.62042         0.64224
C          2.24349        -1.38784        -0.10833
C          3.41460        -0.61699        -0.68564
C          4.70061        -1.33933        -0.89077
C          5.96266        -0.53529        -0.59009
C          7.24570        -1.36774        -0.88251
C          8.54537        -0.66799        -1.07381
C          9.89619        -1.36191        -1.37428
C         11.02635        -0.69050        -0.55407
C         -9.79232        -2.93808        -1.22158
C         -9.13665        -3.93386        -0.64162
C         -7.02400        -2.64668        -0.45850
C         -6.18518        -3.54669         0.41883
C         -4.87932        -2.80858         0.59414
C         -3.76996        -3.57975         1.21800
C         -2.50917        -2.83040         1.17021
C         -1.22529        -3.55788         1.00454
C          0.02156        -2.79723         1.41269
C          1.32946        -3.54601         1.05262
C          2.35648        -2.86050         0.18729
C          3.67065        -3.57265         0.00418
C          4.80417        -2.80832        -0.58630
C          5.91279        -3.53178        -1.30826
C          7.02650        -2.60919        -1.72126
C          9.09541        -3.86660        -1.24560
C          9.88304        -2.85405        -0.91622
C         -8.66333        -5.09085        -0.19212
C         -7.26774        -5.67223        -0.47569
C         -6.25597        -5.02161         0.48903
C         -5.08702        -5.79093         1.06423
C         -3.81631        -5.04958         1.57909
C         -2.53711        -5.80421         1.11283
C         -1.23423        -5.06659         0.95540
C          0.06009        -5.83972         1.35504
C          1.38518        -5.05462         1.12338
C          2.67977        -5.84112         0.76885
C          3.69821        -5.06295        -0.06824
C          4.81725        -5.70173        -0.50942
C          6.00034        -5.01147        -1.11543
C          7.35783        -5.67516        -0.83226
C          8.53877        -5.03183        -1.56128
C         -7.20851        -7.18319        -0.43204
C         -6.12718        -7.88953        -0.00984
C         -5.04223        -7.26711         0.81478
C         -3.77693        -8.05881         1.07648
C         -2.46433        -7.32227         1.43093
C         -1.24568        -7.99094         0.73649
C          0.04427        -7.23124         0.70607
C          1.32309        -7.95897         0.50252
C          2.46605        -7.25562         0.30584
C          3.65470        -7.96669        -0.22725
C          4.84418        -7.17950        -0.64480
C          6.13471        -7.87861        -0.86830
C          7.28453        -7.17828        -1.05202
C         -6.01574        -9.30948        -0.32642
C         -4.91654       -10.04614        -0.06394
C         -3.74520        -9.50176         0.66987
C         -2.44605       -10.30406         0.56775
C         -1.17685        -9.47664         0.61326
C          0.00548       -10.09208         0.34093
C          1.29266        -9.41042         0.26193
C          2.44902       -10.10593         0.02989
C          3.80026        -9.42647         0.13283
C          4.94684       -10.04577        -0.63855
C          6.03618        -9.33496        -1.00808
O         -1.91830         1.21420         2.43234
O         -2.04784        -5.47112        -0.19507
O          3.85951        -1.04040        -2.02029
O         -6.83384        -4.16652         1.54479
O         -2.32574         3.62738         2.23944
O          4.75876        -3.05414         0.85754
O         -5.57943        -6.72231         2.07923
O          1.79171         7.44502        -1.28217
O          1.24997         3.54068        -0.95896
O          9.63462         1.42951        -1.56192
O         -1.84607        -2.96106        -0.17689
O          7.49162        -2.61008        -2.85472
O          8.12868        -1.23959         0.26147
O         -1.10800         7.31751        -1.65875
O         -5.95718         3.95020        -2.71942
O         -0.76748        -7.37309        -0.50277
O         -0.15121         8.41192         1.67981
O         -6.98090        -2.65562        -1.67460
O          4.02190         8.96046        -1.10779
O         -6.79205         0.13433         2.03476
O          5.62690         3.85700        -1.58769
O          1.71274        -2.37702        -1.03388
O          5.61773        -4.46419        -2.40219
O         -3.69639         5.89063         0.84653
O          3.68839         1.49098        -1.96660
O          3.84080        -7.65690        -1.64204
O          1.63048         0.09382         1.85237
O         -7.92554        -0.10106        -1.62723
O         -4.70388        -1.00541         2.52978
O         -3.49551         9.06020        -1.48225
O          1.78445        -4.20013         2.25944
O         -4.05499        -9.12083         2.05751
O         -2.27394        -7.45264         2.84348
H         -2.80173        -8.22868         3.14582
O          0.43256         2.94757         2.59842
H         -0.35948         2.70682         3.13155
O          6.02612         0.60618        -2.71383
H          5.10371         0.69020        -3.05492
O         -3.85198         5.13117        -2.64519
H         -4.54696         4.71989        -3.24266
O         -0.02263        -2.73034         2.85109
H          0.70664        -2.15626         3.16640
O         -2.45116       -11.07418        -0.64279
H         -2.19037       -10.49271        -1.38664
O         -8.51319         1.89044         1.45426
H         -8.27579         1.23955         2.15738
O          2.80109         6.31601         2.06695
H          2.57952         5.55128         2.63932
O         -3.79099         0.44088        -0.60600
H         -3.50343         1.23666        -1.13048
O          3.38383        -6.06280         2.02462
H          3.37451        -5.21500         2.52545
O         10.19851        -1.29728        -2.76200
H          9.46361        -1.73500        -3.24886
O         -6.85222        -5.37703        -1.82134
H         -6.95030        -4.40818        -2.00707
O         -0.91522        10.31349        -1.27434
H         -1.60437        10.09180        -1.93845
O         -1.60800         5.96670         2.26020
H         -2.51311         5.67350         2.51499
O         -2.30615        -1.45315         3.08956
H         -2.26609        -0.53052         3.42955
O         -0.02111        -6.06244         2.76994
H          0.27507        -5.24209         3.22572
O         -0.51018         1.69203        -0.76193
H          0.14064         2.25380        -1.25954
O          5.87372        -0.28507         0.82049
H          6.76968        -0.43246         1.20945
O         -8.22753        -2.00581         1.53644
H         -7.94958        -1.47240         2.31373
O         -3.14239         2.93768        -1.31218
H         -3.39509         3.56234        -2.05442
O          8.99634         3.94210        -1.72388
H          9.21128         3.09666        -2.18221
O         -8.49397         4.29458        -3.02604
H         -7.55630         4.00224        -3.23299
O          7.52525        -5.45234         0.59103
H          8.33348        -5.92099         0.88502
O          6.06451         4.53902         1.95828
H          6.09442         5.33755         2.52574
O        -10.63703        -1.50118         0.51959
H        -10.06954        -1.99441         1.15907
O         -5.08326         2.08952         2.42039
H         -5.31770         1.30654         2.96963
O          7.40308         2.33911         1.19586
H          8.27790         1.94355         1.40057
O         -4.48343        -2.53682        -0.78907
H         -3.51381        -2.66769        -0.91137
O         -9.02829         4.40477         0.56546
H         -9.09812         3.71637         1.26933
O         -3.82743        -5.10230         3.02007
H         -4.43651        -5.83489         3.28084
O         -5.97458         8.58399        -2.67560
H         -5.80178         7.97368        -3.42190
O          4.18257        -9.47312         1.54160
H          4.17986       -10.40982         1.82851
H         11.81299        -1.40832        -0.26168
H         12.05800         0.73164         0.61599
H         10.41042         3.15378         1.20814
H          9.61995         5.62366         0.28610
H          8.42371         7.68916         0.88053
H          7.14478         9.79441         1.26707
H          5.09739        11.10254         1.12135
H          2.51942        11.12611         1.01472
H         -0.13215        10.54583         1.62743
H         -2.58921        10.28999         1.52296
H         -5.32096        10.18681         1.14105
H         -7.03823         8.87798         0.17355
H         -8.13113         7.43535        -1.53947
H         -9.33215         5.53473        -1.60415
H        -10.68716         3.33757        -1.51775
H        -11.52377         1.17776        -2.39857
H        -11.61798        -1.24368        -2.20337
H        -10.36406        -3.18992        -2.13565
H         -9.27289        -5.64660         0.54433
H         -7.98544        -7.71476        -1.00409
H         -6.85842        -9.76479        -0.86822
H         -4.86190       -11.09558        -0.38641
H         -2.44238       -11.04421         1.41112
H          0.00372       -11.18071         0.17400
H          2.41032       -11.19964        -0.09966
H          4.94121       -11.13808        -0.78280
H          6.89558        -9.85533        -1.45949
H          8.22396        -7.71761        -1.25341
H          8.91673        -5.55840        -2.45676
H         10.71202        -3.11868        -0.22925
