         280
 CSIRO Nanostructure Databank - Neutral Graphene Oxide Data Set
C         30.40295        31.75731         0.15758
C         30.45626        32.96645        -0.10360
C         30.47029        36.15185        -0.41194
C         30.38203        37.38608        -0.57717
C         30.47930        40.29466        -0.36078
C         30.39403        41.34427         0.29679
C         32.81779        29.24653         1.20493
C         31.67660        29.63915         0.87562
C         32.84109        31.61433        -0.07200
C         31.47307        30.75396        -0.12451
C         32.80423        33.05108        -0.48852
C         31.54975        33.87333        -0.27947
C         32.83056        36.07629        -0.25656
C         31.55602        35.22957        -0.35697
C         32.78268        37.42461        -0.95793
C         31.47989        38.09178        -1.39159
C         32.78132        40.46002        -1.27432
C         31.47634        39.60981        -1.16622
C         32.87609        41.83073        -0.74376
C         31.06040        42.59371         0.30865
C         32.78271        43.84212         1.09934
C         31.60174        43.36947         1.34176
C         35.58026        28.00529         2.23290
C         35.36572        29.42690         1.81615
C         34.09870        29.82575         1.12917
C         35.34197        31.73071         0.14854
C         34.05146        31.06435         0.38466
C         35.42062        33.08421        -0.54596
C         34.08882        33.82166        -0.62538
C         35.29942        36.00085        -0.60331
C         34.11364        35.30919        -0.51818
C         35.28724        37.41942        -1.16423
C         34.02138        38.25418        -0.76391
C         35.30410        40.35724        -0.93863
C         34.06965        39.65207        -1.48304
C         35.28614        41.58642        -0.34050
C         34.04882        42.33579        -0.15115
C         35.34341        44.03748         1.30660
C         34.05565        43.48645         0.71684
C         35.34513        45.55851         1.39247
C         38.03476        27.88938         2.13201
C         36.63241        27.37551         2.31758
C         37.88951        29.09765         1.19289
C         36.53926        29.64954         0.80469
C         37.81986        31.79564         0.20185
C         36.53705        31.10361         0.39081
C         37.81701        33.18227         0.09023
C         36.50790        33.92684         0.13624
C         37.77476        36.00281        -0.49688
C         36.57672        35.32358        -0.44121
C         37.75365        37.48584        -0.52703
C         36.52948        38.21269        -0.84495
C         37.81008        40.32500        -0.92250
C         36.55478        39.58973        -0.90695
C         37.66350        41.83474        -0.96937
C         36.62232        42.17741         0.12124
C         37.61064        44.57091        -0.07312
C         36.54345        43.63393         0.45702
C         37.68239        45.91505         0.65238
C         36.37050        46.19880         1.11608
C         40.34448        24.85635         2.11158
C         39.32841        25.65885         2.10187
C         40.25140        27.38566         0.85412
C         39.07564        26.91534         1.65729
C         40.29390        28.84937         0.36150
C         39.03001        29.66654         0.63639
C         40.37380        31.67086        -0.10881
C         39.03044        31.02461         0.20503
C         40.31099        33.21287        -0.08208
C         39.06608        33.96415         0.36589
C         40.24250        36.05376        -0.37273
C         39.06478        35.37577        -0.21370
C         40.28560        37.44380        -0.95402
C         39.05814        38.24941        -0.58542
C         40.34414        40.35037        -1.25458
C         39.01719        39.67960        -0.93305
C         40.29649        41.85625        -0.96533
C         38.98325        42.57481        -0.80543
C         40.15267        44.50105         0.24222
C         38.97079        43.89446        -0.13458
C         40.18086        45.91308         0.67365
C         38.86032        46.55865         0.87989
C         40.06449        48.65005         1.37453
C         39.07686        47.91026         1.29964
C         42.91783        24.74368         1.71077
C         41.58949        25.27050         1.71132
C         42.87602        27.33864         0.67155
C         41.56708        26.58088         0.92623
C         42.83876        28.83250         0.94712
C         41.54189        29.59765         0.87429
C         42.82901        31.84699         0.70059
C         41.44791        31.15214         0.88783
C         42.92623        33.35918         0.33859
C         41.57824        33.98804        -0.00048
C         42.80646        36.07871        -0.56036
C         41.56142        35.50264         0.14136
C         42.77664        37.49077        -0.72428
C         41.56635        38.18029        -0.65815
C         42.82470        40.35479        -0.74244
C         41.50438        39.67209        -0.47342
C         42.77853        41.81906        -0.51532
C         41.47483        42.50185        -0.35035
C         42.55842        44.35164         0.98258
C         41.41320        43.76920         0.16362
C         42.69229        45.88104         0.75138
C         41.35875        46.60683         0.83395
C         42.63020        48.57994         1.61952
C         41.40204        48.20104         0.83893
C         43.98358        25.29593         1.39770
C         45.46952        27.36909         1.07689
C         44.22670        26.62607         0.83149
C         45.47940        28.86862         1.04632
C         44.15713        29.58296         0.96278
C         45.39942        31.80555         0.21692
C         44.11384        31.07071         0.65887
C         45.25469        32.96541        -0.87081
C         43.90675        33.79231        -0.79058
C         45.25232        35.97476        -0.88077
C         44.03144        35.32964        -0.69559
C         45.29212        37.42003        -1.21337
C         44.00400        38.22609        -1.12646
C         45.29825        40.53316        -0.99864
C         43.99951        39.70680        -0.96429
C         45.21314        41.50978         0.21061
C         44.02409        42.45336         0.00300
C         45.08158        44.21757         1.31079
C         43.92721        43.69465         0.79714
C         45.01913        45.59755         1.93900
C         43.79673        46.42037         1.74038
C         43.62208        47.86781         1.79318
C         47.88772        27.53771         1.00076
C         46.76865        26.91281         1.09128
C         47.88638        28.82085         0.35120
C         46.71862        29.54666         0.54957
C         47.88743        31.65130        -0.23754
C         46.56270        30.83932        -0.23477
C         47.73965        33.04530        -0.85424
C         46.56993        33.75494        -0.79770
C         47.72215        35.99323        -1.34747
C         46.57848        35.27196        -0.59933
C         47.85628        37.44597        -0.92507
C         46.59413        38.19309        -1.17747
C         47.84355        40.37341        -0.50755
C         46.57284        39.68303        -0.96676
C         47.72781        41.43135         0.61769
C         46.47783        42.29704         0.54057
C         47.55216        43.94597         2.09303
C         46.36576        43.48251         1.21805
C         47.44420        45.45785         2.07252
C         46.37355        46.05423         2.23489
C         50.35708        28.81835        -0.33292
C         48.97216        29.29229        -0.58032
C         50.31011        31.49029        -0.68517
C         49.11642        30.83549        -0.63680
C         50.30785        32.90549        -1.17041
C         49.02033        33.68990        -1.24629
C         50.33602        35.87585        -1.03431
C         49.05459        35.21436        -1.37295
C         50.22239        37.20404        -0.26260
C         49.04555        38.07569        -0.69296
C         50.38724        40.19603         0.03643
C         49.12446        39.56427        -0.53678
C         50.33870        41.60182         0.68622
C         49.00182        42.22750         0.90349
C         50.11774        43.78733         2.21057
C         48.87030        43.37334         1.67160
C         51.46061        29.36164        -0.47329
C         52.77340        31.63336        -0.73030
C         51.65374        30.81792        -0.15462
C         52.72007        32.86568        -0.86298
C         51.61419        33.70335        -1.33763
C         52.64286        35.85526        -0.49077
C         51.52657        35.15052        -1.07853
C         52.61759        37.07526        -0.20738
C         51.54634        37.98159        -0.09564
C         52.62674        40.08013         0.80744
C         51.57091        39.31423         0.26229
C         52.62975        41.21489         1.35788
C         51.54571        42.09053         1.49033
C         51.27895        43.29714         2.15700
O         44.85238        29.45024         2.25741
O         43.63010        26.88865        -0.48320
O         42.02613        29.09009         2.14829
O         45.00456        40.73661         1.37587
O         51.00359        33.07216        -2.46750
O         38.44871        37.96800         0.69819
O         40.36923        28.71483        -1.06409
O         43.59412        31.64639         1.92189
O         44.00888        45.73619         2.99689
O         39.72517        42.60082        -2.09900
O         50.73736        41.39676        -0.70499
O         31.77985        42.69360        -0.96641
O         40.66998        26.48274        -0.20419
O         48.72721        40.45592        -1.64151
O         33.35109        33.35905        -1.82790
O         43.63555        42.65068        -1.38065
O         44.50549        37.74427        -2.41117
O         46.75533        39.10464        -2.30285
O         31.81521        40.32901        -2.37662
O         49.00552        34.36209        -2.54419
O         34.14406        38.60807         0.64153
H         33.90241        37.80531         1.17288
O         41.56093        48.58946        -0.50402
H         41.57429        49.56747        -0.55988
O         37.06470        41.51045         1.33466
H         36.54320        41.87481         2.08859
O         46.27663        30.36164        -1.57192
H         46.98306        29.71443        -1.84123
O         42.10785        44.09560         2.32893
H         42.75741        44.49174         2.96190
O         45.40539        41.27932        -2.21373
H         45.69169        40.65581        -2.91819
O         40.61401        40.15372        -2.66172
H         40.33842        40.97420        -3.13291
O         43.40804        34.04825         1.51814
H         43.68397        33.35662         2.17180
O         35.88490        32.85470        -1.89138
H         35.08549        32.76124        -2.46025
O         39.15109        34.07101         1.81332
H         38.24912        34.27713         2.14996
O         41.63625        35.95381         1.50940
H         42.30980        35.39576         1.96834
O         40.27105        37.31907        -2.41040
H         40.43552        38.21627        -2.79336
O         40.98107        31.52823         2.18259
H         41.53526        31.05330         2.84249
O         32.89796        36.34503         1.21884
H         32.01181        36.68339         1.48236
O         31.25800        37.84645        -2.77011
H         30.48625        38.37106        -3.06815
O         51.63390        30.98595         1.23988
H         52.37388        30.48371         1.63766
O         35.51369        43.47822         2.61879
H         34.72194        43.69349         3.15618
O         38.48649        28.42214         3.38616
H         38.59209        27.68289         4.02075
O         47.56046        40.61010         1.80775
H         46.55791        40.52607         1.94563
O         43.20591        33.58445        -2.01883
H         43.82446        33.75034        -2.76274
O         36.18254        34.10066         1.55170
H         35.53138        34.83068         1.63514
O         40.80930        31.27776        -1.42668
H         40.44367        29.60321        -1.49058
O         47.24117        36.06124        -2.70427
H         47.91398        36.49505        -3.26903
O         48.26930        31.94735         1.13604
H         47.54244        32.47460         1.54869
O         37.10340        42.24910        -2.24063
H         37.83836        42.22548        -2.89541
O         45.22913        32.47726        -2.21328
H         46.01219        31.90445        -2.38574
O         43.22142        46.07855        -0.56961
H         42.92365        46.95518        -0.90118
O         48.54387        28.88383        -1.90243
H         49.29323        29.00104        -2.52515
O         31.29735        30.23293        -1.40898
H         31.98216        29.55735        -1.58925
O         35.29483        37.15691        -2.58479
H         35.08812        38.00424        -3.05566
O         36.14069        28.86970        -0.36016
H         36.86370        28.89893        -1.02259
O         47.32861        43.49773         3.42039
H         46.45801        43.82662         3.72723
O         45.81119        32.53475         1.40243
H         45.60073        31.97510         2.18502
O         40.93007        33.71314        -1.29188
H         41.05069        32.10879        -1.92020
O         41.18518        39.90976         0.92553
H         41.90946        39.55395         1.48378
O         34.22900        39.51251        -2.90789
H         33.32629        39.55769        -3.30667
O         46.82495        35.43917         0.82306
H         46.20137        34.85944         1.31424
O         35.57632        30.27811         2.93769
H         34.82668        30.18069         3.56019
O         37.21065        44.89260        -1.44262
H         37.06393        44.03787        -1.92761
O         49.88678        36.80439         1.10155
H         50.63943        36.29045         1.46604
