         252
 CSIRO Nanostructure Databank - Neutral Graphene Oxide Data Set
C         30.12570        31.67632         0.18664
C         30.21058        32.89956         0.37751
C         30.27564        36.16095         0.57415
C         30.30902        37.40091         0.58590
C         30.39401        40.59669         0.69518
C         30.18907        41.82861         0.60518
C         32.62704        28.82986         0.00369
C         31.54557        29.42232        -0.03684
C         32.53313        31.59593         0.30056
C         31.27494        30.85725        -0.38883
C         32.49310        33.11399         0.01464
C         31.31347        33.83587         0.35722
C         32.60577        35.96030         0.20886
C         31.36694        35.24063         0.37782
C         32.61597        37.45120         0.01911
C         31.40814        38.29025         0.37739
C         32.72500        40.40643         0.23251
C         31.45042        39.65586         0.48276
C         32.97779        41.75629         0.74146
C         31.07170        42.90517         0.91635
C         32.72967        44.36963         0.21281
C         31.47960        44.05012         0.23622
C         35.41870        27.24050        -0.41118
C         35.26867        28.61756        -0.14398
C         33.97829        29.39077        -0.34657
C         35.31112        31.46228         0.29692
C         33.94480        30.83333         0.23377
C         35.51523        32.84276        -0.17709
C         33.58077        33.87830        -0.40002
C         35.18014        35.85510        -0.06773
C         33.77774        35.24980        -0.14517
C         35.22498        37.35598        -0.00034
C         33.94183        38.13380        -0.22946
C         35.27528        40.35432        -0.08750
C         33.99649        39.64272        -0.20531
C         35.29440        41.74390        -0.08095
C         34.08067        42.47957         0.23233
C         35.17753        44.61646        -0.58901
C         34.01206        43.90470         0.03151
C         35.41766        46.02299        -0.03993
C         37.82526        27.21636        -0.67721
C         36.53863        26.68079        -0.59226
C         37.77564        28.60930        -0.39292
C         36.53930        29.26324        -0.13798
C         37.85505        31.46535         0.44507
C         36.58998        30.67417         0.30642
C         37.78479        32.98658         0.56875
C         36.56269        33.65900         0.04899
C         37.81832        35.86329        -0.21501
C         36.51164        35.09350        -0.51471
C         37.79848        37.34802        -0.46199
C         36.50376        38.10139        -0.30732
C         37.79718        40.31316         0.21636
C         36.51427        39.56177         0.08238
C         37.80919        41.79695         0.00663
C         36.54748        42.50752        -0.18002
C         37.80413        44.63560        -0.44267
C         36.52349        43.88103        -0.34926
C         37.85661        46.09906        -0.15815
C         36.52495        46.58795        -0.10351
C         40.15499        24.48312        -0.15220
C         39.23938        25.11835        -0.67156
C         40.34192        27.21137        -0.53408
C         39.08588        26.51619        -1.13468
C         40.35256        28.67648        -0.71670
C         39.02483        29.42212        -0.55392
C         40.26978        31.54509        -0.11251
C         39.10457        30.84153        -0.08248
C         40.32891        32.96820         0.34434
C         39.04931        33.75979         0.47879
C         40.29185        35.89635         0.14460
C         38.99743        35.20345         0.06415
C         40.24946        37.37763         0.24880
C         39.13182        38.12580        -0.47265
C         40.22978        40.27896         0.19742
C         39.07886        39.59108         0.00095
C         40.23841        41.75662         0.58566
C         39.01277        42.45714         0.04779
C         40.35470        44.65825         0.15700
C         39.13001        43.89550        -0.23709
C         40.34577        46.07492         0.19018
C         39.05903        46.76837         0.01589
C         40.29180        48.84261         0.29374
C         39.24463        48.16533         0.16322
C         42.66222        24.50749         0.54256
C         41.26912        25.09701         0.63969
C         42.65318        27.32396         0.27492
C         41.39665        26.58936         0.08405
C         42.69351        28.76422         0.05860
C         41.58264        29.42291        -0.39016
C         42.83234        31.60955        -0.31453
C         41.53780        30.90845        -0.67091
C         42.79906        33.09460        -0.42948
C         41.58798        33.75213         0.18237
C         42.79676        35.94825         0.42364
C         41.49842        35.24402         0.19207
C         42.83137        37.43171         0.41879
C         41.52999        38.12768         0.39023
C         42.80238        40.30785         0.05425
C         41.52040        39.56860         0.00994
C         42.78199        41.71500         0.59769
C         41.53893        42.46503         0.07425
C         42.77021        44.64124         0.62164
C         41.56028        43.95341         0.37998
C         42.77829        46.05693         0.71293
C         41.56888        46.79519         0.45378
C         42.86041        48.79433         0.66761
C         41.56560        48.26582         0.47533
C         43.64402        25.25037         0.69258
C         45.12312        27.33791         0.60012
C         43.86308        26.65830         0.54159
C         45.22899        28.75429         0.43896
C         43.92800        29.53831         0.50038
C         45.32368        31.59335        -0.26425
C         43.99109        30.93703        -0.08816
C         45.39058        33.09206        -0.40797
C         44.08405        33.83990        -0.40686
C         45.37399        35.98377         0.02275
C         44.08955        35.21983         0.16850
C         45.31886        37.44221         0.27853
C         44.01149        38.13495         0.39752
C         45.23658        40.29041         0.12439
C         44.06655        39.57499         0.26411
C         45.20858        41.74793         0.01341
C         44.06489        42.44196         0.31439
C         45.27613        44.65322         0.23999
C         44.07779        43.86750         0.83116
C         45.41608        46.03218         0.92091
C         44.06326        46.76411         1.08639
C         43.89721        48.20023         1.02846
C         47.49979        27.33983         0.82947
C         46.39258        26.74662         0.78890
C         47.70842        28.72966         0.69926
C         46.47589        29.42205         0.49524
C         47.82276        31.62777         0.45984
C         46.59086        30.85912         0.10410
C         47.84511        33.02340         0.44053
C         46.67472        33.80337        -0.04245
C         47.80918        35.92537         0.54594
C         46.64967        35.25775         0.25336
C         47.85300        37.39951         0.93617
C         46.53700        38.16097         0.76247
C         47.79940        40.27774         0.10323
C         46.53450        39.64067         0.46108
C         47.76020        41.60066        -0.61928
C         46.43169        42.49107        -0.51659
C         47.83754        44.61621        -0.18208
C         46.58863        43.79452         0.32375
C         47.54249        45.92057         0.03163
C         46.72679        46.66119         0.72927
C         50.21763        28.92272         1.08108
C         48.94686        29.43927         0.80737
C         50.24497        31.54620         1.08354
C         49.02294        30.87698         0.79647
C         50.27978        33.04843         1.26209
C         49.02788        33.78240         0.77317
C         50.30187        35.96138         0.88236
C         49.04051        35.17595         0.73640
C         50.37117        37.47560         0.53124
C         49.02807        38.14756         0.34621
C         50.22904        40.17130        -0.49518
C         48.99838        39.51633         0.02533
C         50.28236        41.58159        -0.67248
C         49.04492        42.39906        -0.30335
C         50.32852        44.35221        -0.86099
C         48.91056        43.88769        -0.95638
C         51.34085        29.42416         1.35825
C         52.82446        32.42294        -1.29805
C         51.43301        30.84853         1.42775
C         52.17680        33.04890        -0.40913
C         51.46129        33.69752         0.55260
C         52.59482        35.97121         0.08714
C         51.63187        35.13120         0.78118
C         52.55495        37.09720        -0.41211
C         51.27368        37.84934        -0.70171
C         52.44233        40.10988        -1.22396
C         51.35797        39.34829        -0.78824
C         52.54840        41.36988        -1.31767
C         51.49670        42.25433        -1.03876
C         51.34589        43.68664        -1.11852
O         33.12306        40.27428        -1.17777
O         32.17325        42.31895         1.73243
O         46.37683        39.08573         1.86045
O         43.30744        33.70910        -1.64753
O         41.24784        33.15571         1.47740
O         37.09731        39.81762         1.41596
O         46.12730        42.85057        -1.85219
O         42.19885        39.95000        -1.22883
O         44.79527        46.20736         2.21133
O         46.30176        33.52266        -1.45051
O         38.64777        44.26046        -1.58206
O         34.57261        33.22674        -1.13502
O         35.29071        36.56098         1.21654
O         45.47495        36.92073        -1.10073
O         38.38479        33.53234         1.77230
O         39.62362        29.19406        -1.88162
O         40.64538        37.88362         1.55145
O         33.13863        37.68731        -1.35201
O         46.14123        30.96740        -1.30462
O         43.56882        35.31158         1.52620
O         51.13474        35.65558         2.03798
O         37.00447        37.78181        -1.63432
O         37.28370        30.78590         1.60404
O         34.58161        31.09628         1.51328
O         39.16201        26.59211        -2.55642
H         39.24441        27.54528        -2.79848
O         33.94364        29.61210        -1.77208
H         33.90658        28.74188        -2.22283
O         44.23528        43.69084         2.27079
H         44.28022        44.58772         2.68943
O         50.35867        33.24751         2.69065
H         50.54470        34.20172         2.87128
O         40.12474        41.88514         2.01535
H         40.96553        41.54352         2.41479
O         50.98040        38.14750         1.64720
H         50.48498        37.89424         2.45651
O         41.57636        42.38686        -1.36155
H         40.83861        42.91099        -1.73790
O         50.66781        37.32244        -1.86669
H         51.13828        37.65137        -2.66060
O         31.30173        31.00562        -1.77267
H         30.53627        30.54795        -2.17524
O         32.17663        31.51262         1.68688
H         32.98782        31.62210         2.23360
O         48.17076        37.37938         2.36499
H         47.70919        38.15970         2.76224
O         43.73228        29.79676         1.93309
H         43.61688        28.93468         2.38712
O         52.53276        31.49778         1.82079
H         53.27742        30.87996         1.95231
O         41.44189        31.10812        -2.11133
H         42.24374        30.73590        -2.53542
O         40.90439        25.20600         1.98741
H         40.75763        24.31210         2.35861
O         36.47022        35.01071        -1.94893
H         35.68986        34.46566        -2.20096
O         34.95684        44.71644        -1.98414
H         35.73588        45.13223        -2.40854
O         47.81084        41.12968        -1.97697
H         47.05626        41.60695        -2.44714
O         48.51388        43.87176        -2.30048
H         47.54616        43.58441        -2.35109
O         42.69165        41.53561         2.04186
H         43.23231        42.24944         2.47139
O         39.56745        38.14340        -1.85063
H         38.77158        38.26513        -2.41698
O         44.96321        44.99111        -1.10956
H         45.22205        44.20724        -1.68854
O         46.81438        43.43955         1.67478
H         46.85068        44.24726         2.22809
O         49.12093        42.59092         1.11602
H         49.98577        43.00315         1.32476
