         287
 CSIRO Nanostructure Databank - Neutral Graphene Oxide Data Set
C        -11.13500         0.61825        -1.26528
C         -9.97694         1.42896        -0.88878
C         -8.84345         0.64376        -0.26159
C         -7.51871         1.41154        -0.36681
C         -6.38802         0.67602         0.39804
C         -5.04796         1.40242         0.29639
C         -3.79323         0.66313         0.67286
C         -2.61454         1.35091         0.78820
C         -1.29499         0.59370         0.65380
C         -0.06686         1.37493         1.16337
C          1.24941         0.63796         1.16344
C          2.51976         1.35201         0.83846
C          3.63302         0.70827         0.38060
C          4.72680         1.53218        -0.29973
C          6.09955         0.86640        -0.55816
C          7.41088         1.60644        -0.49658
C          8.67232         0.81001        -0.37150
C          9.94724         1.56271        -0.46738
C         11.13726         0.77165        -0.72206
C         -9.95588         2.78448        -0.95604
C         -8.85044         3.66205        -0.40956
C         -7.64808         2.86187         0.09141
C         -6.39893         3.62695         0.37913
C         -5.07917         2.89790         0.28280
C         -3.84507         3.62887         0.78144
C         -2.58598         2.81923         0.49904
C         -1.28319         3.54603         0.41680
C         -0.11167         2.91743         1.17669
C          1.22413         3.55786         0.68120
C          2.50113         2.82648         1.11818
C          3.78861         3.58686         1.06180
C          4.91196         2.97538         0.25901
C          6.22704         3.73228         0.13788
C          7.48284         3.01555        -0.07573
C          8.73540         3.69353         0.00989
C          9.94527         2.92673        -0.30893
C         -8.44050         4.81354        -1.31564
C         -7.32983         5.59989        -0.98224
C         -6.45313         5.17029         0.25059
C         -5.05967         5.78166        -0.00816
C         -3.78662         5.04904         0.22179
C         -2.51054         5.82164         0.41969
C         -1.21195         5.07121         0.10536
C         -0.04577         5.81871         0.73508
C          1.22106         5.06440         0.95453
C          2.51233         5.84302         0.97506
C          3.79695         5.10011         1.13191
C          5.14582         5.83302         1.14100
C          6.37381         5.21364         0.44389
C          7.67092         5.71137         1.12073
C          8.82164         5.04942         0.37247
C         -7.06007         6.86602        -1.49077
C         -6.31725         7.89524        -0.65807
C         -5.07296         7.28495         0.00407
C         -3.81151         8.07516         0.20053
C         -2.50362         7.32340         0.34676
C         -1.21182         7.96480        -0.16819
C         -0.01561         7.32084         0.51912
C          1.29095         8.02537         0.42973
C          2.52449         7.16193         0.21387
C          3.83318         7.96176         0.31673
C          5.11369         7.25806         0.62997
C          6.38120         7.96357         0.99673
C          7.55316         7.25907         1.14423
C         -5.96341         9.15066        -1.42119
C         -4.86423         9.88277        -1.19621
C         -3.79641         9.57682        -0.15019
C         -2.43304        10.14809        -0.63815
C         -1.16377         9.47726        -0.11993
C          0.01994        10.13382        -0.07103
C          1.35594         9.41236        -0.18734
C          2.60604        10.11855         0.32154
C          3.77835         9.43736         0.50626
C          5.04466        10.06564         0.88248
C          6.22901         9.41013         1.08610
C        -11.18430        -0.70439        -0.98888
C        -10.02315        -1.38062        -0.30188
C         -8.72054        -0.78634        -0.82752
C         -7.51810        -1.52964        -0.25242
C         -6.20704        -0.76330        -0.14950
C         -5.15638        -1.51344         0.70682
C         -3.80759        -0.81138         0.65789
C         -2.64992        -1.52997         0.71560
C         -1.40329        -0.83211         1.23782
C         -0.08150        -1.61157         1.03726
C          1.21179        -0.86207         1.03031
C          2.50376        -1.55645         0.66552
C          3.48009        -0.72112        -0.14020
C          4.81546        -1.41204        -0.53551
C          6.08086        -0.63383        -0.77516
C          7.39805        -1.35073        -1.14298
C          8.65099        -0.66303        -0.62141
C          9.91234        -1.38543        -0.97018
C         11.12240        -0.57628        -0.94757
C        -10.04592        -2.88402        -0.26297
C         -8.88731        -3.59197        -0.13089
C         -7.61091        -2.86475        -0.01533
C         -6.41504        -3.70199         0.39317
C         -5.12387        -2.93621         0.19878
C         -3.85450        -3.67978         0.09654
C         -2.61974        -3.04417         0.71774
C         -1.35606        -3.60906         0.06833
C         -0.05138        -2.94202         0.32822
C          1.20620        -3.76451         0.32053
C          2.50890        -3.04961         0.53948
C          3.82780        -3.76842         0.19282
C          4.84060        -2.95644        -0.69531
C          6.22545        -3.63860        -0.54946
C          7.51543        -2.81699        -0.62358
C          8.64522        -3.57343        -1.39264
C          9.91019        -2.71943        -1.27894
C         -8.84161        -5.04836         0.06128
C         -7.68542        -5.76391         0.02597
C         -6.42013        -5.03533        -0.38284
C         -5.12164        -5.79933        -0.16758
C         -3.92558        -5.16306        -0.02897
C         -2.64855        -5.83187        -0.42426
C         -1.37464        -5.05069        -0.36621
C         -0.05803        -5.78736        -0.48913
C          1.18773        -5.07696        -0.08272
C          2.45940        -5.89836         0.10423
C          3.66003        -5.14565        -0.43290
C          4.90865        -5.85060        -0.86575
C          6.23855        -5.13053        -0.76121
C          7.50564        -5.87481        -1.03255
C          8.79924        -5.04784        -0.91350
C         -7.59900        -7.14796         0.63033
C         -6.39560        -7.98362         0.19514
C         -5.13793        -7.27742        -0.23017
C         -3.81901        -7.97100         0.09589
C         -2.63685        -7.35236        -0.65315
C         -1.33017        -8.04128        -0.27664
C         -0.07606        -7.33239        -0.54277
C          1.22194        -8.10949        -0.48433
C          2.47809        -7.32165        -0.42385
C          3.78200        -8.01858        -0.16223
C          4.95287        -7.34766        -0.82498
C          6.25229        -8.06468        -0.95945
C          7.50195        -7.23512        -1.03926
C         -6.20035        -9.32338         0.82318
C         -5.05357       -10.02082         0.71901
C         -3.88411        -9.49834        -0.09539
C         -2.53658       -10.10202         0.23669
C         -1.33433        -9.41235         0.07277
C         -0.04674       -10.21262         0.31615
C          1.26899        -9.53158        -0.05084
C          2.45979       -10.17194         0.11277
C          3.79061        -9.48949         0.02624
C          5.09650       -10.16826        -0.22604
C          6.23236        -9.50210        -0.54231
O          0.36038         5.45814         2.06321
O         -2.40033         6.63140         1.61987
O         -6.01740        -7.89146        -1.20936
O         -0.73351        -2.79454        -0.96605
O          1.98333        -7.74980        -1.70653
O         -2.59564        -3.47102         2.10794
H         -2.37076        -2.68803         2.66645
O         -0.92220         5.14326        -1.31071
H         -1.63374         4.65980        -1.79027
O         -4.11441        -9.86130        -1.47445
H         -3.71689        -9.16225        -2.04836
O          5.19422         3.74686        -0.94877
O          3.97730        -8.52569         1.17818
O         -9.24495         0.38903         1.12869
O         -1.06697         0.38779        -0.75809
H         -1.28998         1.22609        -1.23151
O          0.55927         0.97554         2.41710
O          3.07711         5.68675         2.28991
O          5.14061        -0.85615        -1.86303
O         -6.50124        -4.76039        -1.79374
H         -5.68220        -4.27508        -2.04883
O          2.58529        -6.07730         1.53729
H          3.23971        -5.41384         1.88101
O          6.69728         1.44088        -1.78376
O         -4.33496         5.18359        -1.13397
O          6.38579        -4.54681         0.57525
O         -2.14007        -5.14374        -1.61892
O          3.29213         3.05018         2.32943
O         -1.85819         2.93992        -0.78581
O         -2.41638        11.54696        -0.40874
H         -2.93167        11.70169         0.41583
O         -7.47501        -6.94871         2.05955
H         -7.19119        -6.01723         2.21711
O          0.56280         8.00421         1.67504
O          8.59774        -0.14973         0.74160
O          1.53186         9.20648        -1.63799
H          1.69307        10.08400        -2.04666
O         -1.14502         7.66010        -1.58893
H         -0.28858         8.00975        -1.92769
O          3.92337        -5.36839        -1.83090
O         -4.73459         7.82746         1.30905
O         -7.25955         8.24297         0.38462
H         -7.31260         7.42999         0.97910
O          0.69802        -1.52869         2.24338
O          8.31686        -3.72948        -2.78328
H          8.14382        -2.82712        -3.15144
O         -4.86083         2.16400        -0.95854
O          7.89852         5.24731         2.46523
H          7.13848         5.54419         3.02022
O          2.39861         6.68843        -1.15504
H          2.47018         7.47234        -1.74855
O         -1.64316        -0.76605         2.65819
H         -0.76427        -0.60577         3.08675
O          4.73348         7.51335        -0.75375
O         -0.06484        -6.49494        -1.75249
O         -3.54696        -7.71019         1.49488
H         -4.26244        -8.11641         2.03044
O         -4.44688        -3.02416        -1.09917
O         -6.51504        -4.07165         1.79138
H         -6.31274        -3.25687         2.31793
O          5.34020        -7.89998        -2.11943
O          2.85642        -2.34213         1.81565
O         -9.38073         4.45416         0.67887
H         -8.59524         4.91117         1.12970
O         -3.91567         3.71076         2.21601
H         -4.71936         4.21124         2.47614
O          7.94505        -2.64855         0.73803
H          8.16156        -3.54486         1.09145
O         -7.25168         1.44900        -1.78406
H         -6.28889         1.65690        -1.90333
O         -4.12664        10.30709         1.04708
H         -4.75984         9.74493         1.55531
O         -7.25496         3.13187         1.45614
O         -7.07614         5.73988         1.34564
O          4.13608         1.68694        -1.61742
H          4.84394         2.06057        -2.19597
O         -2.81661        -7.57088        -2.06855
H         -2.26662        -6.88843        -2.52791
O          7.49835        -1.28227        -2.57889
H          6.57709        -1.23187        -2.93265
O         -9.99349        -0.91154         1.12086
O          4.47969        -3.12574        -2.07404
H          3.71468        -2.54681        -2.28156
O         -6.70866         0.65740         1.80071
H         -7.68872         0.53494         1.90738
O          6.55896         5.80336        -0.86403
H          5.81844         5.51991        -1.44544
O         -5.65776        -0.59929        -1.47299
H         -5.23658        -1.44607        -1.74999
O         -5.53433        -1.60300         2.09731
H         -5.84172        -0.70378         2.39137
O          1.25637         3.37303        -0.75418
H          0.59861         3.98148        -1.17943
O         -0.14634       -11.48034        -0.34011
H         -0.17835       -11.32745        -1.30686
O         -0.40708         3.25369         2.53475
H          0.21690         2.76875         3.11947
O          9.21567        -5.05437         0.45715
H          9.13157        -5.96379         0.80962
O         -8.66208        -0.80526        -2.24743
H         -7.92725        -0.20118        -2.51323
O          4.37132        -4.10944         1.49135
H          4.29897        -3.32465         2.08331
O          5.47872         5.94352         2.55326
H          4.63133         6.06401         3.04661
O          2.73282        -0.60021        -1.38237
H          3.16709         0.12906        -1.89971
H         12.07651        -1.08985        -1.14276
H         12.10100         1.30307        -0.74171
H         10.89649         3.47795        -0.36349
H          9.81379         5.52846         0.37940
H          8.47080         7.82100         1.38917
H          7.11890        10.00684         1.34089
H          5.03331        11.16197         0.98577
H          2.57667        11.20905         0.47531
H          0.01395        11.23175        -0.17506
H         -2.38767         9.98304        -1.75500
H         -4.72499        10.81810        -1.76157
H         -6.69627         9.49897        -2.16690
H         -7.49977         7.17252        -2.45579
H         -9.26711         5.30945        -1.85557
H        -10.83948         3.31251        -1.34943
H        -11.98623         1.12056        -1.74918
H        -12.07562        -1.29621        -1.24581
H        -11.01717        -3.39955        -0.31327
H         -9.78493        -5.55007         0.33096
H         -8.54601        -7.72128         0.44265
H         -7.03785        -9.72694         1.41306
H         -4.96815       -11.01073         1.19359
H         -2.48576       -11.18709         0.42119
H         -0.00747       -10.43771         1.41784
H          2.44932       -11.22907         0.42426
H          5.14981       -11.25138        -0.03306
H          7.17686       -10.06401        -0.61706
H          8.45968        -7.77705        -1.11541
H          9.59585        -5.53647        -1.54495
H         10.86761        -3.20009        -1.54091
