         261
 CSIRO Nanostructure Databank - Neutral Graphene Oxide Data Set
C        -11.32804         0.68379        -0.44221
C        -10.11571         1.46657        -0.10762
C         -8.85332         0.69336         0.16145
C         -7.55884         1.45643         0.00290
C         -6.34702         0.71774        -0.43336
C         -5.16614         1.48643        -0.93336
C         -3.87334         0.78480        -0.60427
C         -2.58852         1.53349        -0.76068
C         -1.26008         0.85344        -0.60346
C          0.02524         1.60678        -0.77251
C          1.35122         0.85557        -0.71737
C          2.59130         1.48047        -1.30251
C          3.89818         0.67903        -1.21369
C          5.19353         1.42862        -1.07272
C          6.45929         0.70881        -0.62022
C          7.61494         1.45300        -0.02959
C          8.80462         0.74749         0.55278
C         10.10736         1.54810         0.37364
C         11.31811         0.74556         0.07339
C         -9.84047         2.88410        -0.60774
C         -8.86814         3.65012         0.26061
C         -7.73577         2.91899        -0.41134
C         -6.49332         3.79535        -0.69179
C         -5.19734         2.98099        -0.91955
C         -3.88488         3.62057        -0.52047
C         -2.62029         3.00248        -1.06919
C         -1.31472         3.74106        -1.17214
C         -0.01925         2.93256        -1.51674
C          1.28268         3.76655        -1.40879
C          2.59727         2.97873        -1.47080
C          3.90941         3.79142        -1.37266
C          5.19238         2.94710        -1.03217
C          6.35438         3.61744        -0.38095
C          7.50228         2.91704         0.31412
C          8.79970         3.65987         0.01006
C          9.99379         2.94372        -0.07964
C         -8.81392         4.95044         0.64088
C         -7.53395         5.63258         0.83017
C         -6.27533         4.81873         0.49307
C         -5.10253         5.76878         0.15516
C         -3.81853         5.00640        -0.00401
C         -2.46779         5.69317         0.09159
C         -1.21610         5.04724        -0.42889
C          0.06598         5.86390        -0.47646
C          1.28736         5.24145        -1.11580
C          2.60011         5.90670        -0.75556
C          3.74142         4.97465        -0.39553
C          4.89874         5.56738         0.35009
C          6.26281         4.89573         0.41273
C          7.47690         5.76077         0.12136
C          8.69829         5.06494        -0.13512
C         -7.45107         6.91458         1.27905
C         -6.14044         7.56670         1.68979
C         -5.01393         7.10810         0.77747
C         -3.67017         7.73988         0.99620
C         -2.51050         7.18907         0.22162
C         -1.27913         8.01974         0.07670
C          0.04129         7.31604        -0.10451
C          1.25497         8.19071        -0.49428
C          2.55788         7.33399        -0.29190
C          3.59568         7.79857         0.69274
C          4.88449         7.01674         0.76623
C          6.18676         7.80170         0.74720
C          7.40084         7.13498         0.24720
C         -6.11347         9.08354         1.74417
C         -4.97236         9.79523         1.64353
C         -3.63386         9.16766         1.44273
C         -2.40949         9.96358         1.12994
C         -1.29174         9.42907         0.57920
C         -0.07059        10.28190         0.23994
C          1.23785         9.50407         0.29253
C          2.37465        10.06267         0.75758
C          3.60997         9.26715         1.01666
C          4.93214         9.93272         1.03498
C          6.09054         9.28043         0.79497
C        -11.37605        -0.66244        -0.32970
C        -10.18599        -1.51548        -0.07724
C         -8.85991        -0.81253         0.03870
C         -7.69451        -1.48261        -0.64311
C         -6.41822        -0.72639        -0.84888
C         -5.10595        -1.47156        -0.97411
C         -3.87565        -0.72825        -0.51116
C         -2.55860        -1.43191        -0.43465
C         -1.26673        -0.64879        -0.64928
C          0.03777        -1.36100        -0.50837
C          1.33033        -0.59599        -0.36706
C          2.60049        -1.40064        -0.34016
C          3.81197        -0.87209        -1.09041
C          5.12830        -1.54433        -0.61926
C          6.40952        -0.78836        -0.42406
C          7.58694        -1.49052         0.24205
C          8.84857        -0.73084         0.53066
C         10.21899        -1.50096         0.32389
C         11.36528        -0.60546         0.02545
C        -10.22771        -2.96054        -0.59307
C         -8.93074        -3.71478        -0.34367
C         -7.69422        -2.99325        -0.76403
C         -6.40688        -3.75198        -0.95225
C         -5.08701        -2.97745        -0.96840
C         -3.80462        -3.69443        -0.58547
C         -2.46085        -2.93894        -0.73109
C         -1.32511        -3.47577         0.15940
C         -0.01937        -2.74954         0.07754
C          1.23387        -3.57465        -0.04143
C          2.55317        -2.86548        -0.05008
C          3.79030        -3.68806        -0.30901
C          5.06441        -2.93506         0.05371
C          6.35425        -3.70738        -0.25131
C          7.64116        -2.97712         0.04962
C          8.93698        -3.71990        -0.29493
C         10.16395        -2.84926        -0.19388
C         -8.89427        -5.03278        -0.00977
C         -7.67490        -5.84350        -0.00192
C         -6.45309        -5.29098        -0.74298
C         -5.12235        -5.64809         0.63002
C         -3.85771        -5.01659         0.11291
C         -2.61039        -5.67087         0.65967
C         -1.30058        -4.92416         0.60109
C         -0.02458        -5.70867         0.66355
C          1.22120        -5.05637         0.14602
C          2.49492        -5.78952         0.43521
C          3.77505        -5.16138        -0.05971
C          5.05642        -5.81920         0.39276
C          6.35832        -5.17786         0.01874
C          7.61533        -5.89281         0.38982
C          8.92991        -5.08557         0.54263
C         -7.65665        -7.11079         0.50529
C         -6.40590        -7.91225         0.65936
C         -5.11330        -7.16293         0.66859
C         -3.86313        -7.89486         0.23444
C         -2.59385        -7.16383         0.50244
C         -1.31380        -7.64528        -0.14778
C         -0.07408        -7.22525         0.60342
C          1.17231        -8.03454         0.66648
C          2.46681        -7.25594         0.74955
C          3.74340        -7.99295         0.30593
C          5.01808        -7.25441         0.79006
C          6.31256        -8.03042         1.02900
C          7.56898        -7.21919         0.67579
C         -6.32073        -9.38919         0.47015
C         -5.14860       -10.06329         0.47796
C         -3.81657        -9.40275         0.30800
C         -2.55117       -10.04679         0.82613
C         -1.27953        -9.92204         0.41512
C         -0.03187       -10.25254         0.08651
C          1.25612        -9.41296         0.00185
C          2.52258       -10.14105         0.46634
C          3.71261        -9.48295         0.57008
C          5.02591       -10.13009         0.52390
C          6.20191        -9.45803         0.54044
O          3.09923         6.98225        -1.59702
O          7.44732        -2.41767         1.39387
O         -0.60559         1.53400         0.52038
O         -0.56074        -5.09617         1.85196
O         -6.56440         1.04742         0.97840
O          2.49577         2.07953        -2.61955
O         -0.84189        -2.67743         1.27938
O          6.35000        -4.63103        -1.36153
O         -3.73442        -4.95887        -1.32804
O          0.38935         6.33659         0.88616
O          4.74412         0.95917        -2.37272
O          7.14661         3.08144         1.71764
O         -7.24559        -3.42255        -2.09251
O          6.31255         3.54242        -1.80082
O         -3.25913         1.37620         0.55472
O         -2.21348         7.84474        -1.05060
O          3.75455        -7.86948        -1.10418
O         -5.34094         6.93383        -0.64868
O          1.08574         8.52991        -1.81998
O          0.29316        -7.92386         1.82372
O         -5.69059        -7.58564         1.94564
O          2.77174        -1.89692         1.01247
O          3.76638        -4.61505        -1.40703
O          3.22997         8.24146         2.02175
O         -8.69636         2.75972        -1.58098
O         -5.88111         4.13961         1.63888
O          9.45188         1.33703         1.68558
O         -3.82728        -8.68259        -0.96892
O         -3.32453        -1.18208         0.76709
O         -7.37655        -0.87240        -1.93734
O          4.93121        -6.20962         1.79861
O         -4.89312        -2.21399        -2.20460
O         -1.30626        -7.89026        -1.34140
O         -2.65490        -6.53552         1.81704
O          2.54216        -6.28967         1.81068
O         -6.01990        -6.00368        -1.70598
O         -1.61115         4.93925         0.97961
O         -2.23143         3.63435        -2.31129
O         -0.54705        -1.15388        -1.82397
O         -9.45343        -1.46386         1.19225
O          6.42540         4.38783         1.79752
O          1.50967         0.41871         0.66842
O          7.58182         1.14933        -1.45802
O          3.88543         4.71925         1.01514
O          9.58977        -1.27797         1.62799
O          5.63408         7.19173         1.98244
O          6.11289        -1.49374        -1.68228
O         -5.20170         2.23312        -2.17701
O         -3.36317         8.04820         2.37626
O         -9.64289         1.22530         1.25733
O         -3.85226         3.87248         0.91796
O          1.10982        -4.49766        -1.18599
O          1.20575         4.78391        -2.48059
O        -10.46676        -2.96886        -2.00654
H         -9.61229        -2.87861        -2.48040
O         -5.86129         7.06560         3.01916
H         -5.79922         6.08430         2.97050
O          8.90646        -4.09527        -1.68210
H          8.02723        -4.51217        -1.88154
O         -2.03609        -3.16179        -2.07711
H         -2.81602        -3.14137        -2.67300
O         -5.56911        -5.08269         1.78313
H         -5.93493        -5.82073         2.34360
O          4.94205        -2.81887         1.47913
H          5.79345        -2.52893         1.88261
O          4.11737         4.39404        -2.64609
H          4.03371         3.69913        -3.33359
O          1.44675        -9.18190        -1.41236
H          2.33449        -8.72565        -1.53697
O          9.13683        -4.79869         1.91257
H          8.47182        -4.14690         2.22235
O         -0.01867        11.43418         1.07250
H          0.08458        11.14284         2.00168
O          6.45177        -8.17623         2.47139
H          6.12457        -7.34092         2.87833
O          3.58123        -1.34422        -2.42492
H          4.31987        -1.01767        -2.98832
O         -6.73340         4.57345        -1.86099
H         -6.99798         3.96754        -2.58586
O         -0.11566         2.53111        -2.88718
H          0.05572         3.31869        -3.44975
H         12.30289        -1.08976        -0.28739
H         12.21946         1.31036        -0.21131
H         10.90629         3.45273        -0.42679
H          9.61022         5.65113        -0.32542
H          8.28823         7.75133         0.03492
H          7.02774         9.84942         0.70016
H          4.93737        11.03241         1.08296
H          2.33897        11.08309         1.17558
H         -0.20517        10.64182        -0.81632
H         -2.40554        11.03117         1.40320
H         -5.01174        10.89443         1.69736
H         -7.06649         9.61319         1.89789
H         -8.38439         7.44587         1.52952
H         -9.73642         5.52207         0.82822
H        -10.71921         3.40964        -1.04570
H        -12.22846         1.23529        -0.75343
H        -12.30714        -1.18681        -0.59312
H        -11.08299        -3.49371        -0.10435
H         -9.83275        -5.54395         0.26040
H         -8.58172        -7.53736         0.92769
H         -7.26819        -9.94881         0.46603
H         -5.17016       -11.16387         0.45622
H         -2.69964       -10.51083         1.82251
H          0.07334       -11.21582        -0.45268
H          2.50487       -11.24253         0.50242
H          5.03843       -11.21459         0.32859
H          7.14064       -10.01750         0.40882
H          8.51489        -7.71915         0.94491
H          9.78960        -5.70943         0.19404
H         10.96945        -3.13429        -0.88986
