         651
 CSIRO Nanostructure Databank - Neutral Graphene Oxide Data Set
C          5.98082        31.89640         1.13425
C          5.75825        33.20179         0.77297
C          8.50371        27.64016         1.58922
C          8.50673        29.03451         1.41948
C          7.26979        29.80376         1.43922
C          8.51255        31.87574         1.18847
C          7.24169        31.18571         1.36478
C          8.62805        33.22696         1.21100
C          6.74760        34.26905         0.84382
C          8.26717        36.12281         0.18088
C          6.97763        35.39271         0.10156
C          8.32529        37.48508         0.14600
C         10.95699        23.30336         1.67886
C         10.93070        24.71825         1.47534
C          9.72721        25.46632         1.56540
C         10.92412        27.58631         1.21718
C          9.70161        26.88775         1.44923
C         10.96696        28.99270         1.17082
C          9.75302        29.69856         1.21307
C         11.00167        31.90395         1.03649
C          9.73502        31.12000         0.72929
C         11.01099        33.28692         0.55571
C          9.69108        33.91858         0.45652
C         10.83802        36.07804        -0.09366
C          9.54925        35.35419         0.03520
C         10.82815        37.46582        -0.06946
C          9.58585        38.21364         0.12014
C         10.93181        40.30381         0.41789
C          9.62868        39.57204         0.26405
C         10.88250        41.75246         0.03355
C         13.41965        18.97483         1.88396
C         13.40935        20.36257         1.81585
C         12.08513        21.09024         1.90904
C         13.37953        23.23714         1.38392
C         12.14372        22.58060         1.64165
C         13.37508        24.64625         1.09619
C         12.15600        25.36887         1.15807
C         13.41827        27.53677         0.61176
C         12.12937        26.81196         0.87496
C         13.50581        29.01339         0.75489
C         12.31739        29.69167         1.38557
C         13.51591        31.90539         0.64564
C         12.32512        31.20530         1.17108
C         13.43966        33.23225         0.22121
C         12.16842        33.94966         0.22466
C         13.27662        35.99517        -0.53224
C         12.09847        35.34868        -0.15178
C         13.19604        37.43318        -0.85069
C         12.04397        38.19668        -0.32762
C         13.31548        40.30264        -0.46875
C         12.09646        39.57197        -0.21116
C         13.31321        41.72310        -0.37161
C         12.06272        42.45022        -0.21023
C         13.29724        44.57910        -0.45789
C         12.08960        43.87009        -0.30876
C         13.30492        46.00890        -0.56972
C         15.84086        14.74658         1.22758
C         15.82770        16.08511         1.66627
C         14.64137        16.82343         1.76345
C         15.86608        18.96339         1.97130
C         14.63708        18.24047         1.91201
C         15.86110        20.36078         1.80806
C         14.63655        21.06941         1.68998
C         15.81949        23.17079         1.19943
C         14.62529        22.50270         1.42403
C         15.85346        24.61626         1.05864
C         14.60882        25.34532         0.88174
C         15.86382        27.42171         0.45283
C         14.66947        26.75711         0.68710
C         15.93615        28.88840         0.41383
C         14.68238        29.66469         0.57728
C         15.88273        31.70122        -0.28123
C         14.84280        31.17274         0.70473
C         15.74902        33.09779        -0.74054
C         14.58981        33.92381        -0.32039
C         15.73438        36.01371        -1.07955
C         14.52488        35.28167        -0.66781
C         15.73570        37.39912        -1.19729
C         14.47964        38.18238        -1.12890
C         15.73732        40.33050        -0.86829
C         14.51593        39.62575        -0.82188
C         15.74231        41.71711        -0.65536
C         14.52906        42.43740        -0.49555
C         15.76054        44.60716        -0.67474
C         14.53817        43.87691        -0.51858
C         15.73453        46.03166        -0.74171
C         14.47685        46.72156        -0.70989
C         15.70004        48.94448        -0.67424
C         14.40548        48.21492        -0.95338
C         15.68667        50.26573        -0.35256
C         18.18354        10.56684         0.01215
C         18.21592        11.95637         0.38126
C         17.02220        12.69825         0.58901
C         18.32151        14.72024         1.22818
C         17.04581        14.04148         1.01018
C         18.36387        15.98643         1.78408
C         17.10844        16.71384         2.06653
C         18.43411        19.03839         2.29157
C         17.12456        18.23456         2.24199
C         18.39464        20.28167         1.43678
C         17.15439        21.06842         1.66533
C         18.16426        22.96980         0.25220
C         17.13783        22.49980         1.27053
C         18.35626        24.47146         0.23725
C         17.20091        25.28185         0.59698
C         18.21529        27.29843        -0.62144
C         17.03893        26.64362         0.02193
C         18.32490        28.77786        -0.61411
C         17.17308        29.57143        -0.09794
C         18.24959        31.59312        -1.04477
C         17.05920        30.99231        -0.53096
C         18.24763        32.99701        -1.61039
C         16.95878        33.79126        -1.32492
C         18.19814        35.93386        -1.22980
C         16.99163        35.27727        -1.21315
C         18.27262        37.39732        -1.45006
C         16.96343        38.15545        -1.52762
C         18.28172        40.27057        -0.95592
C         16.97520        39.69347        -1.47837
C         18.30882        41.72317        -0.65461
C         17.01328        42.46311        -0.54078
C         18.22707        44.61946        -0.90135
C         17.01063        43.92373        -0.72361
C         18.18544        46.04838        -0.96752
C         16.96812        46.74941        -0.83161
C         18.15476        48.90485        -0.69492
C         16.96120        48.20215        -0.77052
C         18.11711        50.40329        -0.79944
C         16.96645        50.99924        -0.00287
C         18.10866        53.22602        -0.37923
C         16.96040        52.50228        -0.16488
C         18.03609        54.68739        -0.20090
C         20.33700         6.53623        -1.90996
C         20.49626         7.89147        -1.24974
C         19.33116         8.52915        -0.79883
C         20.64430        10.36899         0.23153
C         19.33565         9.79917        -0.15213
C         20.70438        11.85546         0.42287
C         19.45477        12.63952         0.44943
C         20.77783        14.66742         0.89408
C         19.54327        14.01543         0.83463
C         20.92970        15.81061         1.87138
C         19.66075        16.66418         2.04954
C         20.89886        18.90476         1.58310
C         19.69784        18.19241         2.09966
C         20.82457        20.17147         1.02392
C         19.52931        20.85310         0.92618
C         20.74419        22.89070        -0.13667
C         19.46959        22.17320         0.22156
C         20.73578        24.35983        -0.41127
C         19.51144        25.06628        -0.30601
C         20.73343        27.20172        -1.11037
C         19.45944        26.47722        -0.78748
C         20.74449        28.71557        -1.40966
C         19.48163        29.42961        -0.93537
C         20.72565        31.58016        -1.08334
C         19.48366        30.88718        -1.03661
C         20.69900        33.02698        -1.09562
C         19.51692        33.72229        -1.23289
C         20.73994        35.98038        -1.19396
C         19.47545        35.19733        -1.35423
C         20.69617        37.44052        -0.92754
C         19.52433        38.13355        -1.12884
C         20.73026        40.29842        -0.75642
C         19.47114        39.57962        -0.94920
C         20.77424        41.75198        -0.86937
C         19.54274        42.49840        -0.91880
C         20.75011        44.63059        -1.26744
C         19.48853        43.89259        -1.00707
C         20.77471        46.13982        -1.19682
C         19.43362        46.83007        -1.10932
C         20.60008        48.90926        -0.38089
C         19.41767        48.24156        -0.70126
C         20.59868        50.35219        -0.18966
C         19.41058        51.09128        -0.45389
C         20.68439        53.11844        -0.44430
C         19.39874        52.49081        -0.48611
C         20.85020        54.46592        -0.82915
C         18.95167        55.57243        -0.70745
C         20.54103        57.49434        -0.56889
C         19.24307        56.96764        -0.48032
C         20.69162        58.89570        -0.77314
C         22.79272         4.11977        -3.58299
C         21.61890         4.66572        -3.11063
C         22.90355         6.76525        -2.48256
C         21.56311         6.06128        -2.67458
C         22.98118         7.88344        -1.52042
C         21.77811         8.45235        -1.02983
C         23.16251        10.38212        -0.19864
C         21.91111         9.55339        -0.00852
C         23.21695        11.75683         0.08275
C         21.93759        12.56403        -0.07620
C         23.33601        14.63371         0.67492
C         22.00365        14.02016         0.38489
C         23.42838        15.97481         1.28652
C         22.20469        16.64506         1.72745
C         23.38453        18.85043         1.12819
C         22.18040        18.18405         1.64688
C         23.30567        20.18902         0.73750
C         22.04603        20.88471         0.61447
C         23.22289        22.82360        -0.55584
C         22.02445        22.19983         0.14008
C         23.22673        24.34589        -0.58275
C         21.98085        25.06675        -0.64919
C         23.21131        27.25095        -1.01025
C         21.98478        26.47456        -0.84312
C         23.19777        28.72955        -0.75963
C         21.99337        29.43448        -0.92864
C         23.20730        31.54088        -0.67166
C         21.98263        30.85945        -0.88932
C         23.27348        33.00642        -1.04676
C         21.96121        33.72551        -0.63266
C         22.96017        35.92829         0.05557
C         22.06167        35.25194        -0.99260
C         23.05140        37.42408        -0.15908
C         21.92191        38.12754        -0.54657
C         23.19354        40.28324        -0.52096
C         21.90015        39.58040        -0.57987
C         23.22158        41.75914        -0.49803
C         22.00403        42.43486        -0.78223
C         23.30612        44.63812        -0.77490
C         22.05261        43.87468        -1.09878
C         23.22679        46.13730        -0.48216
C         21.93694        46.85905        -0.61254
C         22.82581        48.76082         0.78491
C         21.84623        48.18726        -0.24103
C         22.93174        50.33489         0.88579
C         21.77765        51.02397         0.19241
C         23.07940        53.14479         0.15021
C         21.84210        52.42226         0.00714
C         23.09839        54.55737         0.01645
C         21.92295        55.24383        -0.41489
C         23.12814        57.45405        -0.15690
C         21.80593        56.71627        -0.29895
C         23.20040        58.96711        -0.33312
C         21.91879        59.55997        -0.89157
C         23.22803        61.45023        -1.74004
C         21.98962        60.86331        -1.42079
C         24.03205         4.79026        -3.47630
C         25.37447         6.58522        -2.45295
C         24.14000         6.02896        -2.81289
C         25.47121         7.77340        -1.65999
C         24.24860         8.38433        -1.15385
C         25.61216        10.29458        -0.33941
C         24.35094         9.66353        -0.48264
C         25.66748        11.65699        -0.02546
C         24.47378        12.39110         0.16953
C         25.87504        14.47151         0.83649
C         24.55794        13.77604         0.69436
C         25.87014        15.95209         0.90542
C         24.63206        16.67879         1.16595
C         25.81709        18.79090         0.70171
C         24.61864        18.11596         1.08924
C         25.80816        20.16447         0.41016
C         24.57903        20.98197         0.68881
C         25.73068        22.91665        -0.31876
C         24.53395        22.24229        -0.11253
C         25.69416        24.32737        -0.58459
C         24.46680        25.01795        -0.66911
C         25.69980        27.24574        -0.52118
C         24.51768        26.48696        -0.88959
C         25.56180        28.59690         0.11606
C         24.38908        29.41189        -0.40769
C         25.61834        31.55534        -0.01582
C         24.40460        30.83498        -0.35524
C         25.65739        32.97393         0.01494
C         24.46750        33.76394        -0.42764
C         25.43369        35.83363         0.79559
C         24.31428        35.19479         0.03731
C         25.42076        37.34492         0.86377
C         24.13043        38.15874         0.61017
C         25.56871        40.30229         0.42397
C         24.37931        39.52275        -0.02254
C         25.60861        41.76621         0.19417
C         24.40795        42.46180        -0.18655
C         25.58530        44.60525         0.20130
C         24.44955        43.90011        -0.20815
C         25.53726        46.03983         0.41434
C         24.32449        46.72443         0.29516
C         25.50605        48.87079         0.93675
C         24.19468        48.08512         0.81747
C         25.49033        50.33271         0.74525
C         24.27638        51.00139         0.57255
C         25.53775        53.12930         0.40497
C         24.29370        52.41888         0.37991
C         25.56058        54.54697         0.16729
C         24.35183        55.27358         0.03597
C         25.60904        57.30023        -0.57436
C         24.37560        56.66560        -0.23640
C         25.59012        58.66526        -1.04704
C         24.44352        59.43236        -1.06212
C         24.41926        60.74497        -1.61781
C         26.71645         8.30597        -1.33931
C         28.12941        10.24432        -0.59584
C         26.86572         9.45316        -0.37983
C         28.20426        11.61190        -0.40427
C         26.95672        12.38203        -0.18297
C         28.42042        14.43745         0.36446
C         27.08413        13.81022         0.23496
C         28.34953        15.94339         0.27901
C         27.05832        16.61286         0.72910
C         28.25369        18.72043         0.44461
C         27.05581        18.05127         0.64439
C         28.25071        20.08066        -0.08195
C         26.99739        20.85246         0.03903
C         28.31907        22.96076        -0.17547
C         26.99669        22.22136        -0.19315
C         28.23534        24.34345        -0.78231
C         26.96526        25.05906        -0.44591
C         28.18769        27.33717        -0.61724
C         26.95471        26.54237        -0.33632
C         28.19143        28.72922        -0.14725
C         26.90985        29.33650         0.25504
C         28.16125        31.57849         0.19371
C         26.88054        30.85880         0.30938
C         28.14413        33.00736         0.68386
C         26.80030        33.65999         0.43574
C         28.02543        35.86977         0.44954
C         26.74512        35.08689         0.75096
C         27.73291        37.23770         0.04850
C         26.70102        38.00673         0.49936
C         28.12698        40.23083         0.31861
C         26.82431        39.49193         0.51770
C         28.06827        41.70684         0.52970
C         26.77982        42.44763         0.47760
C         28.01148        44.57124         0.66999
C         26.81890        43.88950         0.47852
C         28.01422        46.01878         1.05956
C         26.74455        46.76111         0.73999
C         28.02717        48.88628         0.86571
C         26.77258        48.14154         0.77938
C         27.99207        50.31625         0.85060
C         26.75088        51.02696         0.74139
C         28.01482        53.21671         0.90492
C         26.74815        52.43804         0.63951
C         28.02036        54.54471         0.21361
C         26.82461        55.21904        -0.03996
C         26.80362        56.57224        -0.49679
C         29.42388        12.34672        -0.46336
C         30.84933        14.34658        -0.41017
C         29.55269        13.72857        -0.12794
C         31.33486        15.54038         0.11627
C         29.52052        16.71039         0.82881
C         30.74530        18.84690         0.64109
C         29.51363        18.08208         0.69662
C         30.83970        20.07730         0.03147
C         29.56370        20.71795        -0.40357
C         30.83718        22.92700        -0.74773
C         29.53382        22.19178        -0.67831
C         30.81551        24.41537        -0.67045
C         29.52001        25.10396        -0.92166
C         30.73888        27.33146        -0.54755
C         29.49126        26.60841        -0.86090
C         30.64083        28.74738        -0.39513
C         29.40036        29.44701        -0.19363
C         30.59526        31.65717         0.09588
C         29.37962        30.90474         0.04253
C         30.62225        33.09301         0.19508
C         29.35940        33.83182         0.24007
C         30.59913        36.00651         0.01449
C         29.32407        35.20243         0.11882
C         30.68577        37.45400         0.38162
C         29.63387        38.29044         0.03660
C         30.62462        40.28400         0.90833
C         29.44415        39.57715         0.53733
C         30.57702        41.67284         1.11248
C         29.28253        42.38075         1.08376
C         30.59428        44.50321         0.58142
C         29.27337        43.87771         1.02088
C         30.56584        46.03191         0.53802
C         29.26367        46.75957         0.63541
C         30.53247        48.91968         1.21198
C         29.24753        48.21071         0.89522
C         30.47932        50.32693         0.69890
C         29.25569        51.02919         0.68842
C         29.24177        52.42908         0.57614
C         32.40083        16.35654        -0.36626
C         33.46127        18.66175        -0.51264
C         32.61769        17.70302         0.04539
C         33.39282        20.09292        -0.21619
C         32.10190        20.80082        -0.12550
C         33.25452        22.99225        -0.16509
C         32.07024        22.17303        -0.39664
C         33.30768        24.42451        -0.68400
C         31.97655        25.16111        -0.56212
C         33.26433        27.34632        -0.56420
C         31.94869        26.59941        -0.50264
C         33.14251        28.73927         0.02435
C         31.90423        29.50423        -0.32267
C         33.09715        31.64715         0.58745
C         31.88920        30.96712        -0.05141
C         33.15490        33.07513         0.04207
C         31.83348        33.78269         0.25470
C         33.02704        35.89283         0.99044
C         31.88274        35.25317         0.19823
C         33.08950        37.40872         0.96977
C         31.87875        38.12310         0.82985
C         33.09075        40.26729         1.18083
C         31.86169        39.55202         0.98898
C         33.08763        41.68547         1.32785
C         31.80988        42.39301         1.42381
C         33.10932        44.61425         1.04458
C         31.81496        43.92683         1.27597
C         33.06447        46.01343         0.83130
C         31.84428        46.76929         0.76111
C         31.79432        48.14533         0.88632
C         34.56837        20.82826        -0.32967
C         35.83720        23.07137        -0.29432
C         34.63286        22.25911        -0.07632
C         35.81185        24.45076        -0.13223
C         34.48563        25.13380        -0.03376
C         35.72885        27.37051         0.06852
C         34.44736        26.61606         0.05393
C         35.69526        28.73943         0.09146
C         34.42086        29.46848         0.29279
C         35.57861        31.65864         0.44208
C         34.41982        30.94362         0.35706
C         35.54812        33.10688         0.66332
C         34.38532        33.80442         0.54189
C         35.54059        35.91758         1.31537
C         34.37230        35.31300         0.51591
C         35.55730        37.42258         1.23045
C         34.32341        38.11329         1.14157
C         35.55905        40.27439         1.28959
C         34.32058        39.55078         1.19609
C         35.52506        41.69914         1.30219
C         34.31088        42.42759         1.30620
C         34.29034        43.86256         1.17754
C         36.99384        25.24384        -0.12044
C         38.20453        27.39422         0.04147
C         36.99482        26.65347        -0.01358
C         38.22620        28.80966         0.05566
C         36.93515        29.51097        -0.08092
C         38.14440        31.66969         0.52587
C         36.89020        31.01887         0.16033
C         38.11778        33.05904         1.01603
C         36.81044        33.78557         1.06041
C         38.06865        35.92291         1.64144
C         36.87845        35.29637         0.88022
C         38.02796        37.41855         1.44012
C         36.80964        38.12220         1.33471
C         36.77622        39.55411         1.32781
C         39.39478        29.58898         0.12860
C         40.58713        31.78015         0.47153
C         39.36020        31.00012         0.35030
C         40.58793        33.12200         0.70242
C         39.36797        33.86919         0.97228
C         39.34615        35.21153         1.22691
O         37.36772        33.24003         2.30589
O         17.75105        42.03411         0.68926
O         16.81665        25.24912         1.99374
O         29.83992        46.44861        -0.68492
O         13.56370        37.81076        -2.22283
O         20.75903        10.96449         1.58257
O         32.86653        31.70882         2.00852
O         19.96393        22.09787        -1.16391
O         25.26615        13.81307         1.99252
O         24.79357        48.35623         2.12457
O         28.24304        41.13324        -0.83574
O         28.82945        20.02553        -1.46833
O         27.61629        35.54383         1.82950
O         31.67828        43.35026         2.56696
O         26.92113        30.01973         1.54841
O         15.91344        33.29271        -2.21594
O         28.64602        37.80879        -0.82526
O         19.87449        55.02645        -1.63612
O         28.77538        24.57220        -2.09299
O         19.83197        17.37986         3.31480
O         17.13895        26.73270        -1.45496
O         20.16113        46.69990        -2.39843
O         23.97038        26.88802        -2.22020
O         34.16570        25.79547         1.22518
O         33.88088        22.74519         1.10219
O         36.90779        30.45142        -1.20596
O         24.18745        39.63603        -1.44888
O         24.86905        34.88870        -1.28289
O         27.07546        25.69410         0.91025
O         22.43046        17.47905         2.90824
O         23.68851        45.60644        -1.78607
O         32.13199        30.46888        -1.43628
O         17.03198        17.34138         3.39448
O         28.73417        27.18624        -1.97189
O         31.86115        18.18127         1.14391
O         17.64564        37.71940        -2.75097
O         22.72267        14.79542        -0.67414
O         19.95371        26.52152        -2.17366
O         30.64443        16.04260         1.25487
O         11.63851        31.81134         2.34960
O         29.11424        43.19563         2.30692
O         17.00326        29.38754         1.36557
O         22.33166        57.11266         1.03314
O         21.50138        44.14191        -2.42491
O         26.80357        13.46589        -1.19621
O         30.11105        22.47211        -1.96880
O         31.50555        35.74402        -1.12923
O         20.22277        35.68588        -2.54406
O         17.49122        22.15632         2.63390
O         25.23813        36.51319         2.06431
O         12.58356        27.12560        -0.52810
O         26.09724        39.94997         1.74150
O         22.04940         7.03345        -3.64928
O          7.70032        34.02861         1.86787
O          9.35582        34.26101        -0.94373
O         33.60819        24.34965        -2.10271
H         32.79238        24.09937        -2.58618
O         34.51779        35.70268        -0.87681
H         33.91292        35.13852        -1.41401
O         17.47843        22.69497        -1.01048
H         18.17984        22.67031        -1.70514
O         16.94157        40.16613        -2.85856
H         17.36168        39.46027        -3.40781
O         28.40459        16.20626        -1.17448
H         27.77579        15.58533        -1.60683
O         22.16875        48.29593         1.99863
H         21.96515        49.09756         2.54199
O         21.71291        12.59911        -1.51696
H         22.25619        13.34340        -1.86901
O         23.55870        38.42717         1.92663
H         24.29820        38.71572         2.50899
O         23.45249        32.97442        -2.46764
H         23.75646        33.87439        -2.73836
O         33.32696        33.04330        -1.40644
H         32.77039        32.32211        -1.78197
O         21.94289        33.51695         0.80076
H         21.19509        34.00955         1.19885
O         32.73009        35.48418         2.34380
H         33.56405        35.54427         2.87346
O         37.92397        35.70323         3.08563
H         37.95818        34.71922         3.21475
O         28.04975        53.47851         2.37561
H         27.20169        53.91085         2.61312
O         22.15020         8.82215         1.24594
H         21.92240         9.44882         1.97268
O         28.30457        32.90198         2.13934
H         28.18290        33.81268         2.50193
O         26.99434         8.85555         0.97254
H         26.14030         8.42195         1.18571
O         35.32976        35.56678         2.70729
H         36.17990        35.76629         3.18833
O         23.06734        22.40659        -1.96551
H         22.19109        22.72556        -2.27425
O         17.83909        50.69928        -2.19967
H         18.55353        50.30397        -2.74177
O         22.76541        50.66342         2.30611
H         23.58060        50.35915         2.76523
O         17.22496        50.73931         1.40968
H         16.50997        51.15907         1.93159
O         21.09327        15.11664         3.14372
H         21.10508        15.82081         3.83333
O         15.38118        31.45639         2.03266
H         16.10589        30.79875         2.18620
O         33.59785        27.50738        -1.96864
H         32.87130        27.99650        -2.41051
O         28.12151        46.02232         2.52746
H         27.40516        45.45879         2.89021
O         30.57202        49.03338         2.70676
H         30.09275        48.26178         3.08035
O         20.76921        28.86195        -2.84974
H         20.26379        28.10424        -3.22614
O         30.76564        44.05863        -0.79363
H         30.30346        44.71187        -1.37090
O         22.72173        35.42950        -2.26035
H         22.02349        35.37756        -2.95568
O         14.03591        48.43086        -2.33211
H         14.77823        48.13202        -2.89679
O         23.32471        59.53198         1.00608
H         22.75001        58.98409         1.58894
O         25.13126        28.24303         1.47913
H         25.65627        28.80977         2.09711
O         24.74599        21.45651         2.10034
H         24.78907        20.65779         2.67039
O         22.38101        35.83502         1.38015
H         22.87046        36.47057         1.95804
O         18.51154        19.55845         3.64068
H         18.51727        18.77345         4.23475
O         11.11500        20.47856         1.04304
H         11.40187        20.61550         0.11703
O         18.31078        32.84564        -3.06152
H         17.38454        32.71874        -3.37191
O         33.57551        28.88708         1.40045
H         32.98770        30.80136         2.36842
O         11.20725        40.31502         1.88207
H         12.03216        40.83008         2.01458
O         28.61335        23.17623         1.24452
H         27.93364        23.78898         1.60797
O          9.73402        31.03484        -0.72941
H          8.90399        30.59432        -1.00815
O         20.01156         5.56920        -0.89326
H         20.54675         5.76111        -0.09576
O         12.55654        29.46334         2.81058
H         12.18990        30.24659         3.28549
O         37.14107        35.55996        -0.50902
H         36.27602        35.59305        -0.99230
H          5.10224        31.23052         1.08536
H          4.74806        33.46364         0.41872
H          7.55750        27.11583         1.78903
H          6.32331        29.24375         1.49077
H          6.23506        35.74080        -0.63284
H          7.39736        38.07492         0.18973
H         10.01388        22.77524         1.88184
H          8.78655        24.93393         1.77010
H          8.69633        40.13794         0.41223
H          9.94199        42.30738         0.17126
H         12.46430        18.43084         1.91033
H         11.69573        20.94330         2.95471
H         11.14341        44.42689        -0.24007
H         12.34238        46.54190        -0.56320
H         14.88473        14.24692         1.01159
H         13.68354        16.31508         1.57691
H         13.58099        48.65585        -0.33690
H         14.72280        50.78433        -0.22215
H         17.20698        10.11782        -0.22558
H         16.05065        12.19593         0.47183
H         16.02427        53.04069         0.05660
H         17.22235        55.06491         0.43670
H         19.46570         6.56239        -2.61570
H         18.35932         8.06840        -1.03222
H         18.40995        57.68117        -0.37202
H         19.77928        59.46520        -1.01443
H         22.78794         3.09152        -3.97269
H         20.71265         4.04984        -3.02303
H         23.24149        62.45775        -2.17946
H         21.05880        61.38998        -1.67926
H         24.94949         4.27508        -3.79577
H         26.30233         6.07900        -2.76008
H         26.52359        59.08206        -1.45569
H         25.35532        61.17758        -2.00056
H         27.62415         7.81151        -1.71796
H         29.05326         9.67582        -0.78599
H         28.97994        55.05865         0.05313
H         27.75577        57.07057        -0.73046
H         30.33315        11.80311        -0.76338
H         31.46392        13.83852        -1.16969
H         31.41679        50.87570         0.52123
H         30.18707        52.96787         0.40739
H         32.97538        15.98825        -1.22903
H         34.25673        18.33554        -1.20149
H         34.01299        46.57254         0.84634
H         32.74114        48.69124         1.02620
H         35.49224        20.31780        -0.64096
H         36.78847        22.55950        -0.50689
H         36.47732        42.25063         1.29809
H         35.25682        44.37863         1.07550
H         37.96374        24.72598        -0.18253
H         39.15969        26.84742         0.06240
H         38.96619        37.99052         1.51059
H         37.72517        40.10744         1.39189
H         40.37424        29.08747         0.11308
H         41.54186        31.25729         0.31264
H         41.54124        33.67069         0.72706
H         40.29201        35.77639         1.22857
