         341
 CSIRO Nanostructure Databank - Neutral Graphene Oxide Data Set
C          1.35336         2.12825        -1.00785
C          1.29587         3.40938        -0.41364
C          2.46625         1.37200        -1.37949
C          2.41000         4.24649        -0.10138
C          1.17405         6.44799        -0.12162
C          1.15724         7.80181         0.00011
C          2.38885         5.67635        -0.05142
C          2.39973         8.58843         0.30769
C          1.23482        10.75061        -0.45173
C          1.25390        12.12452        -0.63481
C          2.42167        10.03363        -0.18008
C          2.45146        12.86873        -0.50357
C          1.29482        15.08589        -0.82368
C          1.32804        16.47104        -0.92833
C          2.46644        14.32218        -0.50745
C          2.49198        17.20451        -0.62710
C          2.58710        18.60285        -0.82243
C          3.78134         1.68979        -0.88984
C          3.68599         3.64035         0.09778
C          4.98863         1.61629        -1.53279
C          4.90911         4.29826        -0.02495
C          3.63704         6.40637        -0.04539
C          3.64152         7.80352        -0.02869
C          4.90426         5.70143        -0.12546
C          4.87581         8.55058        -0.45068
C          3.63258        10.73443        -0.16846
C          3.66339        12.15353        -0.28978
C          4.91274         9.98383         0.12276
C          4.89712        12.88073        -0.09031
C          3.66067        15.00520        -0.20641
C          3.62265        16.48970         0.06277
C          4.88139        14.29685        -0.00194
C          4.95053        17.17802        -0.09318
C          3.77900        19.27980        -0.63611
C          4.99739        18.57918        -0.33027
C          6.22685         2.44140        -1.20985
C          6.15855         3.43745        -0.02000
C          7.48236         1.60397        -1.02734
C          7.42494         4.27241        -0.03488
C          6.15254         6.41714        -0.10708
C          6.16951         7.81865        -0.17647
C          7.37397         5.66204         0.04985
C          7.39672         8.55876        -0.08680
C          6.14679        10.74117        -0.39145
C          6.13150        12.18314         0.05591
C          7.41345         9.98320        -0.06320
C          7.30943        12.86251         0.32529
C          6.11402        15.00893         0.20214
C          6.13941        16.44801         0.09822
C          7.32166        14.29290         0.39503
C          7.39345        17.13133         0.09132
C          6.24227        19.25030        -0.33171
C          7.44564        18.55667        -0.11755
C          8.62414         2.15131        -0.53414
C          8.66389         3.56235        -0.14694
C          9.88234         1.31456        -0.41596
C          9.90746         4.22408        -0.07087
C          8.60857         6.41257         0.30697
C          8.62600         7.86326         0.09804
C          9.93677         5.65564         0.27225
C          9.85421         8.55177         0.07980
C          8.61610        10.67209         0.13842
C          8.58032        12.10508         0.62639
C          9.85483         9.98053         0.10809
C          9.81650        12.88774         0.24573
C          8.56309        15.01564         0.50787
C          8.58134        16.39785         0.29339
C          9.84147        14.32404         0.59629
C          9.93136        17.03701         0.11940
C          8.71170        19.22551        -0.13010
C          9.91304        18.53602         0.03159
C         11.17135         2.11443        -0.36952
C         11.14495         3.54449        -0.25818
C         12.37041         1.43101        -0.34159
C         12.38998         4.27484        -0.25418
C         11.15118         6.44017        -0.00439
C         11.10369         7.82574        -0.00148
C         12.39119         5.72617        -0.21842
C         12.34279         8.60277        -0.36846
C         11.11575        10.69176         0.16605
C         11.11225        12.16566         0.16827
C         12.32497        10.03553         0.07579
C         12.36839        12.88863         0.43361
C         11.03420        14.99096         0.80487
C         10.88977        16.46306         1.20399
C         12.32448        14.32678         0.72377
C         12.20574        17.28294         1.33592
C         11.19950        19.07880        -0.13144
C         12.35180        18.31810         0.21595
C         13.62661         2.11842        -0.18618
C         13.59912         3.56074        -0.22980
C         14.82826         1.44227        -0.01276
C         14.88144         4.25870        -0.36638
C         13.59339         6.46196        -0.20050
C         13.61052         7.87336        -0.04339
C         14.88139         5.78747        -0.36746
C         14.79987         8.57644         0.22211
C         13.57608        10.73633         0.26538
C         13.54917        12.17560         0.44774
C         14.76925        10.00747         0.39084
C         14.83410        12.96888         0.44375
C         13.49050        15.00967         1.03759
C         13.45097        16.38337         1.65618
C         14.73714        14.19607         1.35330
C         14.76519        17.25304         1.56020
C         13.60471        18.77393        -0.16055
C         14.80799        18.29040         0.43645
C         16.04656         2.17172         0.48124
C         16.13976         3.58903        -0.03478
C         17.34515         1.42772         0.38723
C         17.32593         4.28749        -0.04043
C         16.10959         6.47668         0.03404
C         16.05178         7.85253         0.34394
C         17.33205         5.74281         0.04767
C         17.27046         8.55050         0.63813
C         15.96211        10.67871         1.03217
C         16.05643        12.15118         0.77085
C         17.26735         9.95127         0.83729
C         17.23764        12.82574         0.97192
C         16.04452        14.98439         1.34005
C         16.05533        16.42560         1.45776
C         17.22409        14.27308         1.17382
C         17.23016        17.13540         1.29182
C         15.99119        18.94834         0.21470
C         17.18539        18.63902         1.09204
C         18.55283         2.07582         0.24595
C         18.61779         3.50636        -0.26401
C         19.78206         1.38479         0.43536
C         19.87770         4.25030         0.18161
C         18.52138         6.43733         0.37926
C         18.50242         7.81886         0.66190
C         19.82434         5.72601         0.42470
C         19.74501         8.53155         0.87239
C         18.48654        10.66785         0.90145
C         18.49357        12.09918         0.98180
C         19.72961         9.95426         0.87357
C         19.71813        12.80006         0.87168
C         18.52423        14.93466         1.31212
C         18.53418        16.46775         1.32191
C         19.74677        14.23380         0.89249
C         19.73062        17.12077         0.75581
C         18.47890        19.24359         0.61685
C         19.67796        18.56978         0.54091
C         21.00388         2.07269         0.64858
C         21.01121         3.48539         0.71515
C         22.23124         1.35420         0.82940
C         22.18261         4.17246         1.35116
C         20.91036         6.36639         1.28704
C         20.96828         7.84121         1.00548
C         22.22854         5.65723         1.13268
C         22.21060         8.52007         0.96064
C         20.96626        10.66024         0.84748
C         20.94596        12.08333         0.74732
C         22.20180         9.94895         0.84499
C         22.15813        12.79206         0.53478
C         20.91348        14.95262         0.59999
C         20.86640        16.40027         0.46347
C         22.13877        14.22881         0.34784
C         22.02497        17.10982        -0.22129
C         20.92474        19.26670         0.37382
C         22.12525        18.58099         0.17123
C         23.45309         2.03881         0.89908
C         23.46264         3.46986         1.03310
C         24.69330         1.32592         0.76472
C         24.66412         4.20809         1.01925
C         23.43473         6.34558         1.03460
C         23.44776         7.80230         0.96408
C         24.68248         5.61749         1.01928
C         24.67974         8.50731         0.77985
C         23.42769        10.66408         0.72871
C         23.37466        12.06991         0.57075
C         24.67577         9.94052         0.63740
C         24.61717        12.82526         0.42304
C         23.29514        14.89061        -0.10962
C         23.35003        16.40612         0.04680
C         24.49637        14.13447        -0.23623
C         24.50298        17.20436        -0.54738
C         23.37548        19.23105         0.22774
C         24.59358        18.57119        -0.12601
C         25.91178         1.98076         0.76298
C         25.93270         3.44368         1.01476
C         27.15464         1.29411         0.59634
C         27.21063         4.18670         0.77712
C         25.98889         6.37864         1.15861
C         25.91536         7.80971         0.68572
C         27.18228         5.64481         0.60400
C         27.09379         8.47103         0.25718
C         25.88692        10.60602         0.33474
C         25.93123        12.07506         0.27857
C         27.07626         9.89263         0.04731
C         27.05079        12.72274        -0.42677
C         25.58880        14.53953        -1.00410
C         25.57359        16.70806        -1.26216
C         26.88995        14.02027        -0.94347
C         26.90623        17.21724        -1.26178
C         25.85601        19.19603        -0.20574
C         27.02827        18.54455        -0.67958
C         28.35608         1.96162         0.37013
C         28.33007         3.44809         0.08544
C         29.58782         1.29335         0.16861
C         29.64960         4.15069         0.39774
C         28.34269         6.31893         0.19655
C         28.31620         7.75208         0.02625
C         29.57705         5.60692        -0.01470
C         29.49243         8.43253        -0.39937
C         28.25869        10.58397        -0.39629
C         28.22748        11.98041        -0.68684
C         29.46750         9.85294        -0.61547
C         29.38471        12.68878        -1.18945
C         27.96697        14.74838        -1.72839
C         27.99879        16.30447        -1.57018
C         29.32634        14.08191        -1.50659
C         29.22450        16.87118        -1.91317
C         28.28406        19.21276        -0.44365
C         29.41543        18.92320        -1.18003
C         30.75989         1.98801        -0.16246
C         30.81950         3.39043        -0.17672
C         31.96443         4.12446        -0.56704
C         30.74091         6.26909        -0.41643
C         30.70492         7.70566        -0.63000
C         31.94128         5.50491        -0.64379
C         31.84833         8.41778        -1.04710
C         30.64223        10.54212        -1.03576
C         30.61458        11.97597        -1.27367
C         31.82193         9.79088        -1.23737
C         31.78644        12.69629        -1.60156
C         30.52643        14.78104        -1.75287
C         30.50737        16.24467        -1.88127
C         31.74843        14.06487        -1.78580
C         31.67145        17.02090        -1.81759
C         30.79119        19.21193        -0.92917
C         31.79267        18.37444        -1.39143
O         14.73718        18.01801         2.77148
O         14.97949         5.03408        -1.61879
O         25.55863        12.74515         1.54623
O          9.29101         5.98524         1.54564
O          3.73063         2.28351         0.39651
O         26.85387         3.76905         2.13966
O         25.36953        15.51852        -1.97758
O         20.30127         5.24211        -0.87271
O         29.19442        18.19810        -2.37034
O         18.74429        15.69631         2.54600
O         29.80480         4.13496         1.84715
H         30.66601         4.55063         2.06038
O         10.37986        12.64465        -1.07275
O         26.26222         6.45296         2.61423
H         26.51284         5.53414         2.88560
O         10.43430        16.63628        -1.19400
H         10.27309        15.67534        -1.31579
O          4.73240         8.63914        -1.92030
H          4.73361         7.72217        -2.26974
O         27.67458        14.53112        -3.14225
H         26.77905        14.90945        -3.30184
O         15.68785        10.60688         2.49196
H         15.23024        11.44052         2.75146
O         21.78549        17.05387        -1.65098
H         20.96794        17.55924        -1.84163
O         28.06266         3.59214        -1.33526
H         28.77193         3.12150        -1.82213
O         21.98195         4.00650         2.87018
H         22.85758         4.16992         3.28626
O          6.18755         2.65217         1.19171
H          6.16353         3.26368         1.95593
O         10.20893        16.48055         2.46409
H         10.74025        17.06903         3.05591
O         12.32948         8.68498        -1.85417
H         12.45717         7.77344        -2.19554
O          5.05379         9.87362         1.55764
H          4.19327         9.53050         1.91028
O          3.30750        16.59896         1.51566
H          2.43468        16.16999         1.64831
O         15.81600         2.34419         1.94403
H         16.61733         2.76614         2.32231
O         12.07977        18.14179         2.49755
H         13.02499        18.35387         2.77507
O         15.00881        13.47272        -0.91489
H         14.91803        12.71847        -1.53419
O         13.35450        16.04045         3.06964
H         13.90074        16.75729         3.51819
O         18.70585         3.36526        -1.70812
H         19.15858         4.17577        -2.03988
O         23.54899        16.54685         1.48910
H         24.33996        16.02937         1.74944
O          8.65192        12.00297         2.08548
H          7.83674        11.55657         2.39947
O         16.96905        19.30055         2.36458
H         16.11351        18.91043         2.74102
O         20.47820         6.22861         2.67635
H         20.89877         5.40029         3.03270
O         14.55254        13.68153         2.69993
H         14.16012        14.43142         3.22447
O          6.43424         3.27750        -2.38827
H          6.61212         2.68941        -3.15159
O          6.11427        10.86432        -1.83793
H          5.77931        10.01694        -2.21927
O          2.45536         8.74340         1.80147
H          2.31165         7.85055         2.18448
O          9.79563         0.49747         0.76772
H          9.65433         1.08875         1.53547
H          0.38129         1.74859        -1.36385
H          0.29841         3.87446        -0.39837
H          2.33535         0.56587        -2.11616
H          0.22390         5.91542        -0.27332
H          0.19160         8.32538        -0.02980
H          0.26976        10.22802        -0.49731
H          0.30207        12.63984        -0.82213
H          0.36223        14.56554        -1.07902
H          0.43905        17.00586        -1.29548
H          1.69786        19.15107        -1.16914
H          5.00252         1.14586        -2.53059
H          3.82573        20.36480        -0.80805
H          7.47878         0.55495        -1.36246
H          6.26676        20.33522        -0.51408
H          9.93039         0.60099        -1.28044
H          8.72767        20.31801        -0.27008
H         12.36828         0.33148        -0.36958
H         11.33055        20.09307        -0.54270
H         14.84308         0.34235        -0.03310
H         13.67688        19.61301        -0.87255
H         17.34290         0.36716         0.68775
H         16.03632        19.77813        -0.50989
H         19.76119         0.29166         0.56604
H         18.48520        20.33974         0.50743
H         22.22413         0.25786         0.74830
H         20.93350        20.36053         0.50173
H         24.66009         0.23567         0.61970
H         23.40512        20.30006         0.49147
H         27.14829         0.19295         0.62409
H         25.95137        20.23607         0.14088
H         29.61515         0.19559         0.23490
H         28.33874        19.93594         0.38338
H         31.66405         1.41529        -0.42028
H         32.87844         3.58077        -0.85047
H         32.85866         6.02092        -0.95472
H         32.79181         7.88834        -1.23254
H         32.74394        10.28610        -1.56843
H         32.75443        12.18401        -1.67587
H         32.68703        14.59238        -2.00057
H         32.63428        16.49448        -1.90166
H         31.06429        20.09345        -0.33039
H         32.82864        18.71273        -1.23014
