         410
 CSIRO Nanostructure Databank - Neutral Graphene Oxide Data Set
C         28.05277        27.29677        -0.25892
C         28.02047        28.70998        -0.21516
C         26.81285        29.42823        -0.55656
C         27.87695        31.59665        -0.05989
C         26.74935        30.78259        -0.54935
C         27.93167        33.05468        -0.33494
C         26.73414        33.76389        -0.49666
C         27.93668        35.87255        -0.61363
C         26.73017        35.14891        -0.59824
C         27.92257        37.34215        -0.63931
C         26.70969        38.05723        -0.54746
C         27.87372        40.20258        -0.58927
C         26.68736        39.44454        -0.54325
C         27.82085        41.65618        -0.66526
C         26.65777        42.40901        -0.74850
C         27.83743        44.57240        -0.66228
C         26.66625        43.82957        -0.73921
C         27.86829        45.99725        -0.51103
C         30.43227        27.29838         0.30050
C         29.22315        26.61180         0.00472
C         30.42489        28.72470         0.28464
C         29.21646        29.41262         0.06510
C         30.44963        31.63128         0.12643
C         29.18032        30.87967         0.21066
C         30.43426        33.03605        -0.11529
C         29.17111        33.74598        -0.35171
C         30.42663        35.86791        -0.80073
C         29.15600        35.15107        -0.56401
C         30.40951        37.36906        -0.88588
C         29.12720        38.07980        -0.70281
C         30.37950        40.20273        -0.46587
C         29.12351        39.49791        -0.63228
C         30.30936        41.65566        -0.22965
C         29.10536        42.36850        -0.74160
C         30.36917        44.61148        -0.38995
C         29.13062        43.88034        -0.74617
C         30.33231        46.02554        -0.33064
C         29.04948        46.68504        -0.39838
C         32.91317        24.50817         0.76858
C         31.72372        25.20022         0.53372
C         32.80508        27.34078         1.22318
C         31.63945        26.58751         0.62699
C         32.82254        28.79911         0.80867
C         31.66323        29.47178         0.48416
C         32.87908        31.65688         0.40878
C         31.65899        30.92868         0.32356
C         32.87401        33.07333         0.22391
C         31.65915        33.74089        -0.07547
C         32.92967        35.95561        -0.10378
C         31.72617        35.16521        -0.46436
C         32.92706        37.38703        -0.22229
C         31.70535        38.12064        -0.64901
C         32.83612        40.30875        -0.15978
C         31.60957        39.56803        -0.35571
C         32.84515        41.71547        -0.09564
C         31.57281        42.44450        -0.03538
C         32.80708        44.60927        -0.14681
C         31.57956        43.91212        -0.22497
C         32.78935        46.02565        -0.21478
C         31.56932        46.74033        -0.22826
C         32.74766        48.89340        -0.01323
C         31.59637        48.18022        -0.06361
C         35.42017        23.00326         0.86974
C         35.35359        24.41598         1.02718
C         34.14628        25.16542         0.99201
C         35.32876        27.32898         1.17754
C         34.14982        26.62708         1.07843
C         35.36986        28.82034         1.27120
C         34.05283        29.55950         1.07043
C         35.32816        31.65299         0.73820
C         34.11062        30.97586         0.69269
C         35.29428        33.11939         0.80157
C         34.07440        33.83257         0.42732
C         35.33096        35.98632         0.60596
C         34.07200        35.24822         0.33250
C         35.32571        37.47968         0.42941
C         34.07043        38.14836         0.03744
C         35.28018        40.31237         0.03132
C         34.07945        39.59092        -0.06774
C         35.28976        41.73109        -0.00901
C         34.06081        42.45483        -0.06685
C         35.29593        44.58702         0.04700
C         34.06450        43.88820        -0.05569
C         35.33509        46.04089        -0.00840
C         34.07294        46.74071        -0.33928
C         35.31985        48.95938        -0.00785
C         34.05111        48.26655        -0.27622
C         35.35056        50.38455         0.11409
C         37.88711        22.97482         0.93809
C         36.61257        22.31110         0.89391
C         37.89588        24.39478         1.01409
C         36.62640        25.10628         1.28552
C         37.89211        27.35657         1.12601
C         36.60743        26.61295         1.37461
C         37.89292        28.83781         0.93707
C         36.60938        29.57167         0.97989
C         37.83848        31.66115         0.43627
C         36.59483        30.95041         0.79102
C         37.84855        33.10238         0.31354
C         36.66571        33.87574         0.68503
C         37.77922        35.99339         0.04039
C         36.62219        35.30224         0.39297
C         37.77176        37.44860        -0.07949
C         36.59929        38.15446         0.11676
C         37.77960        40.36022        -0.16878
C         36.58613        39.63102         0.36480
C         37.78738        41.73244        -0.10119
C         36.52516        42.44884         0.05177
C         37.79390        44.54750         0.30875
C         36.51332        43.84565         0.09254
C         37.77276        46.03950         0.43140
C         36.51068        46.76472         0.14034
C         37.76288        48.93053        -0.02032
C         36.54493        48.22378         0.02253
C         37.76725        50.38421        -0.45166
C         36.50684        51.08581        -0.03900
C         40.38293        20.17536         0.81814
C         39.20518        20.83628         0.93667
C         40.35787        23.01975         0.79878
C         39.12426        22.27683         0.85025
C         40.32432        24.45836         0.68881
C         39.09234        25.11716         0.81279
C         40.21859        27.28987         0.00768
C         39.00520        26.56633         0.50919
C         40.21376        28.78001         0.00794
C         39.07567        29.50001         0.32482
C         40.17931        31.60639        -0.42482
C         39.00090        30.92946         0.14903
C         40.17443        33.11201        -0.55492
C         38.97499        33.83558        -0.11092
C         40.21070        35.95769        -0.50845
C         39.00048        35.26310        -0.16750
C         40.16532        37.40597        -0.66731
C         39.00396        38.12836        -0.43518
C         40.21638        40.36371        -0.61941
C         38.92178        39.60962        -0.79118
C         40.25304        41.74415        -0.45887
C         39.02824        42.48173        -0.24217
C         40.29451        44.59761        -0.13921
C         39.06343        43.85797        -0.03672
C         40.31965        46.01262        -0.00654
C         39.09017        46.75533         0.36203
C         40.31601        48.90944        -0.21552
C         39.05771        48.25724         0.16648
C         40.29426        50.36784        -0.30808
C         39.04465        51.09962        -0.05881
C         40.29629        53.02888         0.81961
C         39.09418        52.40187         0.38294
C         42.90040        20.23170         0.97251
C         41.65347        20.89767         0.46491
C         42.81437        23.13612         1.19330
C         41.58635        22.35475         0.81829
C         42.81636        24.51881         0.56442
C         41.53845        25.19162         0.36476
C         42.73614        27.22882        -0.38076
C         41.49625        26.53631         0.00312
C         42.73663        28.71624        -0.58744
C         41.43233        29.47012        -0.46712
C         42.68302        31.62765        -0.55590
C         41.48677        30.93570        -0.39582
C         42.68352        33.08095        -0.62675
C         41.46842        33.81375        -0.59218
C         42.69185        35.90906        -0.99795
C         41.42318        35.22992        -0.66531
C         42.70083        37.40198        -1.16688
C         41.39149        38.13921        -1.10027
C         42.72818        40.31464        -0.74233
C         41.43990        39.63708        -0.95114
C         42.73274        41.74333        -0.58005
C         41.50816        42.46558        -0.48125
C         42.77006        44.60133        -0.36946
C         41.53094        43.88658        -0.34797
C         42.77927        46.03752        -0.29243
C         41.52960        46.73674        -0.14798
C         42.77592        48.86930        -0.00414
C         41.51865        48.18484        -0.16461
C         42.79241        50.23354         0.37418
C         41.63102        51.07882         0.12401
C         42.67776        52.84852         1.49840
C         41.51663        52.36776         0.80634
C         44.04732        20.92672         1.11955
C         45.28899        23.06664         0.86427
C         44.10533        22.37199         0.97972
C         45.27123        24.57458         1.00620
C         44.00354        25.18983         0.46691
C         45.27763        27.36635         0.05593
C         44.05508        26.54145        -0.10823
C         45.22520        28.80215        -0.16263
C         43.99141        29.48565        -0.42348
C         45.17712        31.63461        -0.52415
C         43.95191        30.89778        -0.51971
C         45.17394        33.06562        -0.60765
C         43.94150        33.78399        -0.65100
C         45.17342        35.92493        -0.72330
C         43.96448        35.20185        -0.74313
C         45.17965        37.38910        -0.77107
C         43.95338        38.13775        -0.91478
C         45.18683        40.27926        -0.73898
C         43.91310        39.54194        -0.75243
C         45.18699        41.70143        -0.29073
C         43.95410        42.47161        -0.44754
C         45.29291        44.57381        -0.43497
C         44.01017        43.87923        -0.39017
C         45.29378        46.05429        -0.58813
C         44.00599        46.74860        -0.31131
C         45.21794        48.81011         0.30742
C         44.00909        48.14898        -0.05493
C         45.13046        50.01240         1.04607
C         43.91683        50.77590         1.03543
C         43.82627        52.10168         1.58449
C         47.72309        23.13730         0.57675
C         46.57216        22.42473         0.75019
C         47.72106        24.57186         0.39828
C         46.51756        25.26390         0.49590
C         47.74940        27.41548         0.34009
C         46.46734        26.68820         0.29038
C         47.72062        28.90640         0.11334
C         46.42571        29.55275        -0.16313
C         47.66519        31.66278        -0.53532
C         46.41932        30.94459        -0.42393
C         47.65570        33.07354        -0.64424
C         46.40812        33.77859        -0.63802
C         47.65869        35.88905        -0.51927
C         46.40978        35.20555        -0.64462
C         47.62204        37.32786        -0.23915
C         46.38709        38.05470        -0.54463
C         47.73334        40.23778        -0.42474
C         46.46634        39.50860        -0.65710
C         47.72336        41.64346        -0.52859
C         46.50763        42.42679        -0.24722
C         47.77801        44.54646        -0.70375
C         46.50441        43.89241        -0.42718
C         47.90071        45.99812        -0.65626
C         46.61414        46.81626        -0.61406
C         47.68821        48.83784         0.70500
C         46.57341        48.34539        -0.21190
C         47.43504        49.74833         1.78212
C         46.24445        50.40929         1.86836
C         50.15267        24.57350        -0.24470
C         48.95844        25.27106         0.04790
C         50.16961        27.39758        -0.30499
C         48.98719        26.68303         0.02660
C         50.15773        28.83880        -0.47147
C         48.95868        29.56334        -0.34449
C         50.12577        31.65449        -0.87933
C         48.91165        30.95875        -0.58377
C         50.11510        33.09110        -0.89935
C         48.90065        33.78888        -0.72731
C         50.14882        35.94538        -0.58067
C         48.89169        35.22177        -0.59842
C         50.18672        37.35544        -0.48326
C         48.94993        38.08996        -0.20414
C         50.17188        40.21873        -0.70911
C         48.95118        39.54055        -0.44302
C         50.06666        41.55275        -1.14071
C         48.88707        42.31339        -0.94539
C         50.90914        44.83735        -0.95060
C         48.84851        43.74282        -1.11140
C         50.52940        46.17055        -0.58217
C         49.14209        46.61922        -0.75385
C         50.21369        48.93767         0.94523
C         48.98797        48.61909         0.29175
C         51.32408        25.25727        -0.51810
C         52.58796        27.38164        -0.87786
C         51.36544        26.66935        -0.55254
C         52.55303        28.77427        -1.10356
C         51.35350        29.52287        -0.90796
C         52.47821        31.69712        -1.70340
C         51.32292        30.93004        -1.08837
C         52.57651        33.11240        -1.14236
C         51.37166        33.80609        -0.93760
C         52.60705        35.92347        -0.64544
C         51.37402        35.22574        -0.72896
C         52.62469        37.34705        -0.50602
C         51.41252        38.08622        -0.53057
C         52.65401        40.21779        -0.23143
C         51.44930        39.53304        -0.54291
C         52.79370        41.67470        -0.09277
C         51.99594        42.61135        -0.76202
C         53.04665        44.52876         0.35907
C         51.98276        44.03068        -0.50549
C         53.37358        45.89456         0.44363
C         51.50677        47.11016        -0.17545
C         51.38890        48.30235         0.58941
C         55.03859        27.39059        -0.95344
C         53.83410        26.69051        -0.89765
C         55.05348        28.76660        -1.19210
C         53.78236        29.40091        -1.72723
C         55.09762        31.65987        -1.43568
C         53.81179        30.93791        -1.72274
C         55.06934        33.10671        -1.08997
C         53.82436        33.79460        -0.99073
C         55.06752        35.87689        -0.45378
C         53.83623        35.19648        -0.69252
C         55.05178        37.28194        -0.08036
C         53.84292        38.02520        -0.20019
C         54.94713        40.00031         0.73521
C         53.81417        39.42351         0.09507
C         54.86952        41.35815         1.23554
C         53.83814        42.20002         0.76316
C         54.93351        44.10530         1.89540
C         53.91049        43.60570         1.02998
C         55.08479        45.50159         2.09196
C         54.34097        46.39180         1.33682
C         56.25434        29.51148        -1.00563
C         56.29238        30.87193        -1.06917
C         56.26360        33.80623        -0.90081
C         56.26968        35.16277        -0.57280
C         56.19326        37.92502         0.43662
C         56.12328        39.23656         0.88480
C         55.83530        41.86512         2.14932
C         55.84222        43.19313         2.50478
O         39.23377        47.63249         1.51544
O         52.84191        46.78571        -0.50742
O         35.28838        36.87631         1.78735
O         34.60932        29.31821         2.42899
O         43.48713        26.57534        -1.46525
O         38.27713        28.20686         2.24336
O         30.71469        42.05315         1.12296
O         34.12848        47.54430        -1.56863
O         31.21618        37.84102        -2.00891
O         45.85080        41.94955         0.99456
O         28.29916        31.30105         1.32041
O         49.94462        44.26704        -1.80956
O         29.31692        43.09303        -1.99334
O         41.17802        51.00933        -1.25755
O         45.87125        46.59251        -1.86021
O         41.95575        29.02707        -1.78525
O         39.17588        26.78129        -0.93475
O         39.91584        32.25810        -1.72482
O         51.16450        42.13747        -1.78834
O         49.11490        48.00812        -0.96498
O         41.25362        38.96449        -2.31460
O         36.64743        25.81470         2.59839
O         36.02962        33.59160         1.97346
O         54.64104        31.41434        -2.84380
O         48.26512        37.69999         1.03974
O         31.25266        35.30131        -1.86474
O         42.71831        36.52643        -2.34881
O         47.84579        28.34650         1.47739
O         45.93516        40.02470        -1.97241
O         37.76810        45.20009         1.64109
O         46.71806        49.07375        -1.45974
H         46.26599        48.53947        -2.15297
O         32.56834        27.37114         2.67308
H         33.26911        27.95423         3.05450
O         36.70532        39.73498         1.83789
H         36.09719        39.06997         2.23159
O         37.77879        50.37448        -1.93334
H         36.92736        49.98719        -2.23017
O         52.09084        31.87444        -3.10017
H         52.92414        32.04662        -3.59635
O         45.22699        24.83116         2.46525
H         46.08712        24.54205         2.83939
O         42.73847        23.36552         2.64371
H         43.52609        23.91682         2.87868
O         53.72382        29.00345        -3.13638
H         54.31384        29.62950        -3.61675
O         38.63595        39.63237        -2.23848
H         39.47513        39.34041        -2.68187
O         41.75733        20.84301        -1.01640
H         40.94338        21.25374        -1.37948
H         27.12929        26.74395        -0.48282
H         25.94681        28.84083        -0.89605
H         25.84798        31.28574        -0.92671
H         25.77443        33.23064        -0.48380
H         25.76470        35.66390        -0.67329
H         25.75178        37.52512        -0.49239
H         25.71557        39.95379        -0.49552
H         25.67847        41.91017        -0.76308
H         25.70044        44.35590        -0.73205
H         26.91546        46.54699        -0.51323
H         29.19992        25.51438         0.00449
H         29.00972        47.78063        -0.33173
H         32.88812        23.41356         0.69567
H         30.84679        24.61123         0.23239
H         32.70618        49.96382         0.23141
H         30.64743        48.70717         0.10569
H         34.49459        22.42403         0.75071
H         34.41149        50.92910         0.28700
H         36.58250        21.21719         0.80147
H         36.47422        52.18350        -0.02931
H         40.41136        19.07758         0.88612
H         38.28831        20.26480         1.14008
H         40.23004        54.02691         1.27648
H         38.16520        52.97650         0.50209
H         42.88889        19.14061         1.11370
H         42.63440        53.84299         1.96614
H         44.96944        20.38895         1.38840
H         44.69780        52.52814         2.09952
H         48.67266        22.59050         0.51497
H         46.62537        21.32777         0.78943
H         48.27019        50.03146         2.43868
H         46.11235        51.20212         2.61616
H         50.16935        23.47630        -0.26198
H         50.24142        49.72560         1.71089
H         52.22514        24.67264        -0.74347
H         52.33622        48.69807         0.98613
H         55.98329        26.86647        -0.74349
H         53.86751        25.61015        -0.70870
H         55.86501        45.86690         2.77449
H         54.53129        47.47202         1.38315
H         57.16269        28.95712        -0.72302
H         57.23136        31.39264        -0.84153
H         57.22862        33.29481        -1.01143
H         57.23466        35.66634        -0.42998
H         57.13698        37.37520         0.55086
H         57.01476        39.68853         1.33960
H         56.58344        41.18791         2.58253
H         56.59277        43.57821         3.20954
