         618
 CSIRO Nanostructure Databank - Neutral Graphene Oxide Data Set
C         23.35350        70.23996        -1.95810
C         23.30718        71.65746        -1.79152
C         22.25385        72.43133        -2.33995
C         23.27395        74.47189        -1.51335
C         22.24163        73.81881        -2.18296
C         25.75463        65.97818        -1.77966
C         25.65023        67.30827        -1.40207
C         24.50821        68.08005        -1.76219
C         25.52137        70.09234        -0.76455
C         24.43782        69.46200        -1.50610
C         25.36509        71.51889        -0.39208
C         24.33043        72.31887        -1.05611
C         25.48918        74.41014        -0.40270
C         24.34948        73.73523        -0.94674
C         28.09786        61.57962        -1.19875
C         28.06986        63.02177        -1.23480
C         26.95529        63.74594        -1.56611
C         27.87356        65.75151        -0.44631
C         27.06247        65.24761        -1.64626
C         27.89410        67.25802        -0.35099
C         26.75753        67.97092        -0.70162
C         27.68384        69.99884         0.52065
C         26.64240        69.38256        -0.39591
C         27.81017        71.49999         0.38348
C         26.56386        72.25516         0.18686
C         27.85737        74.36194         0.30008
C         26.62852        73.72249         0.02899
C         30.50546        57.30920        -1.12837
C         30.51410        58.71981        -1.11553
C         29.32609        59.46565        -1.09722
C         30.57287        61.65873        -1.48569
C         29.29643        60.88122        -1.19091
C         30.50554        63.03879        -0.88989
C         29.30936        63.71677        -0.84199
C         30.37267        65.81097        -0.09099
C         29.24074        65.10684        -0.44849
C         30.33245        67.23241         0.20738
C         29.07663        67.93469         0.14332
C         30.19168        70.01316         0.79114
C         29.01548        69.30321         0.43470
C         30.21052        71.43608         0.91932
C         28.98644        72.16933         0.63448
C         30.24940        74.27556         0.84364
C         29.02893        73.62905         0.61090
C         32.89392        52.95830        -0.81682
C         32.88886        54.36455        -0.71892
C         31.69803        55.13471        -0.97693
C         32.93157        57.26349        -0.65836
C         31.68454        56.52759        -0.99659
C         33.07998        58.66444        -1.16871
C         31.80862        59.44351        -1.28613
C         33.01205        61.56398        -0.82244
C         31.84894        60.92192        -1.11761
C         33.07648        63.09529        -0.76298
C         31.72339        63.64370        -0.34591
C         32.93144        65.83551         0.20743
C         31.64546        65.08819         0.08019
C         32.84768        67.29228         0.56667
C         31.48815        67.91094         0.62430
C         32.53543        69.94895         1.52876
C         31.39873        69.28766         0.97452
C         32.59718        71.35916         1.52733
C         31.42252        72.10472         1.18642
C         32.65564        74.26916         1.21840
C         31.46260        73.56748         1.10791
C         35.31363        48.62273        -0.92691
C         35.30472        50.03812        -0.76433
C         34.10054        50.78821        -0.82022
C         35.30047        52.87917        -0.30980
C         34.08095        52.19622        -0.64382
C         35.28125        54.28764        -0.14339
C         34.10780        55.02573        -0.36144
C         35.45089        57.19644        -0.13910
C         34.14589        56.49627        -0.24731
C         35.49474        58.64920        -0.24573
C         34.45819        59.34724        -1.12217
C         35.53169        61.60806        -0.34924
C         34.33312        60.87303        -0.87142
C         35.40147        62.95639         0.28019
C         34.20857        63.67775         0.09531
C         35.19384        65.60822         1.27145
C         34.12433        65.01569         0.56470
C         35.10725        67.01515         1.88287
C         33.88048        67.84753         1.47938
C         35.62105        70.13874         1.64573
C         33.52186        69.02029         2.12550
C         35.04890        71.35342         0.98543
C         33.90994        72.09244         1.60825
C         35.18109        74.24505         0.88709
C         33.94255        73.58958         1.39409
C         37.82414        44.29740        -0.84492
C         37.73151        45.70495        -0.79884
C         36.55792        46.44659        -1.00987
C         37.73643        48.61977        -0.75830
C         36.51264        47.88564        -0.90302
C         37.75859        49.99680        -0.56374
C         36.54310        50.72884        -0.53594
C         37.75955        52.83701        -0.16267
C         36.54349        52.15143        -0.27913
C         37.82676        54.24081         0.21777
C         36.49864        54.99891         0.29597
C         37.83478        57.11494         0.67130
C         36.55140        56.46949         0.22156
C         37.85415        58.60601         0.47235
C         36.65966        59.31811         0.08144
C         37.91536        61.47570         0.57307
C         36.76295        60.79294        -0.07830
C         37.77849        62.86441         1.06842
C         36.51637        63.56712         0.92647
C         37.58464        65.55399         2.11019
C         36.39587        64.88721         1.42999
C         37.63510        67.00714         1.68042
C         36.43517        67.73001         1.52892
C         37.76359        69.62444         0.72430
C         36.49633        69.06104         1.05193
C         37.86318        70.93367         0.16985
C         35.94457        72.06755         0.22929
C         37.57097        73.96346         0.13040
C         36.21906        73.48974         0.35757
C         40.34950        40.05093        -0.98256
C         40.32182        41.47007        -0.84062
C         39.10641        42.18410        -0.84895
C         40.28799        44.28111        -0.39817
C         39.05413        43.59111        -0.68648
C         40.25792        45.74829        -0.20034
C         38.96731        46.45591        -0.46026
C         40.31513        48.59760        -0.96859
C         39.00957        47.88036        -0.90251
C         40.33767        50.05519        -0.70892
C         39.06082        50.67768        -0.18868
C         40.31909        52.90776        -0.40421
C         39.02591        52.15589        -0.47824
C         40.31108        54.33942        -0.05481
C         39.10375        54.98180         0.12390
C         40.34897        57.14422         0.43924
C         39.06058        56.48157         0.00722
C         40.31939        58.52267         0.73219
C         39.04865        59.24171         0.73597
C         40.28233        61.39657         1.23244
C         38.98083        60.64709         1.25161
C         40.21279        62.75045         1.53019
C         38.92458        63.45928         1.58888
C         40.10561        65.56340         2.02102
C         38.91355        64.86052         1.89359
C         40.11833        67.00625         1.91980
C         38.88757        67.66599         1.60598
C         40.15056        69.78772         1.24290
C         38.95769        69.01844         1.17814
C         40.13275        71.19625         0.90923
C         38.91695        71.79484         0.39786
C         40.03038        73.95007         0.21893
C         38.80108        73.24101         0.19034
C         42.89028        35.80279        -1.07838
C         42.81721        37.19148        -0.99494
C         41.61137        37.92762        -1.14449
C         42.81577        40.11373        -1.09396
C         41.55368        39.33625        -1.04042
C         42.81153        41.53861        -0.75357
C         41.55933        42.19410        -0.65500
C         42.76765        44.28917        -0.05806
C         41.50112        43.59404        -0.38639
C         42.78103        45.80272        -0.04178
C         41.52734        46.51632        -0.34686
C         42.83328        48.55234        -0.88145
C         41.55674        47.83409        -0.67842
C         42.81447        50.06951        -0.90982
C         41.52636        50.74942        -0.64093
C         42.78601        52.84951        -0.16654
C         41.58858        52.16394        -0.33103
C         42.80037        54.29210         0.07153
C         41.57746        55.01948         0.09427
C         42.80601        57.13478         0.53947
C         41.57420        56.43807         0.35760
C         42.77213        58.54378         0.72640
C         41.54881        59.22998         0.83271
C         42.80627        61.44467         1.01555
C         41.50963        60.73281         0.64359
C         42.71028        62.82058         1.62158
C         41.40921        63.47912         1.80387
C         42.58452        65.57915         2.21865
C         41.38115        64.86489         2.05464
C         42.56583        67.04708         2.26582
C         41.31222        67.74130         1.93201
C         42.58172        69.88100         1.65038
C         41.35369        69.14338         1.64915
C         42.53512        71.38817         1.61617
C         41.29301        71.95750         0.98269
C         42.50127        74.01932         0.45560
C         41.27235        73.33074         0.54879
C         45.36542        32.98838        -1.06955
C         44.16310        33.68111        -1.14294
C         45.33724        35.74245        -0.57785
C         44.12178        35.07866        -0.91573
C         45.32356        37.19380        -0.32058
C         44.03856        37.93074        -0.59229
C         45.35595        40.10219        -0.61014
C         44.13383        39.36938        -0.94695
C         45.31828        41.51462        -0.56099
C         44.05309        42.21669        -0.54860
C         45.26577        44.32757        -0.12694
C         44.05835        43.60683        -0.26440
C         45.27332        45.76970        -0.08457
C         44.06497        46.49498        -0.22160
C         45.30787        48.57889        -0.47811
C         44.09428        47.86334        -0.53435
C         45.34248        50.02449        -0.96032
C         44.07230        50.79078        -0.64852
C         45.28003        52.89157        -0.18720
C         44.05494        52.13684        -0.29984
C         45.28444        54.25121         0.16609
C         44.03503        54.96599         0.29932
C         45.26411        57.05655         0.78432
C         44.05798        56.39759         0.53227
C         45.34037        58.52101         0.78428
C         44.04689        59.30059         0.72941
C         45.23628        61.35783         1.59094
C         44.05692        60.69937         1.20184
C         45.18844        62.67716         2.13528
C         43.90290        63.33990         2.32938
C         45.11747        65.57934         2.18619
C         43.83301        64.89707         2.53263
C         45.10958        67.04426         1.87788
C         43.85619        67.81090         2.14184
C         45.06533        69.91652         1.61036
C         43.82251        69.24197         1.77600
C         45.04627        71.33441         1.26059
C         43.80887        72.01345         1.11232
C         44.97561        74.03630         0.38150
C         43.76247        73.36738         0.66253
C         46.55934        33.66111        -0.77598
C         47.84523        35.73308        -0.14165
C         46.55513        35.04265        -0.53370
C         47.81991        37.24448        -0.26763
C         46.59791        37.94436        -0.35625
C         47.80961        40.07603        -0.38586
C         46.58826        39.37013        -0.42746
C         47.82888        41.54648        -0.71127
C         46.53329        42.25011        -0.40567
C         47.75980        44.37600        -0.05376
C         46.52232        43.63694        -0.20505
C         47.74675        45.76522         0.08306
C         46.49927        46.48935        -0.02159
C         47.70323        48.70176         0.27701
C         46.48468        47.90483        -0.11456
C         47.86860        49.98915        -0.58359
C         46.57954        50.74742        -0.53133
C         47.84515        52.95640        -0.35072
C         46.53777        52.19721        -0.49376
C         47.76827        54.33020         0.18864
C         46.54408        54.93763         0.40223
C         47.77987        57.08134         0.93490
C         46.50778        56.27452         1.11270
C         47.75613        58.50094         1.23162
C         46.56450        59.21242         1.25791
C         47.67025        61.25967         2.03545
C         46.52321        60.63239         1.61065
C         47.72253        62.64142         2.65095
C         46.39279        63.37538         2.60015
C         47.66014        65.63362         2.23250
C         46.41023        64.91460         2.52807
C         47.62340        67.05156         1.96251
C         46.37250        67.79590         1.86816
C         47.56584        69.94181         1.61998
C         46.29769        69.18582         1.70495
C         47.54952        71.40257         1.27478
C         46.24736        72.04235         1.01243
C         47.44897        74.06731         0.26458
C         46.21895        73.39344         0.56127
C         49.02046        37.95452        -0.20120
C         50.25653        40.10789        -0.14913
C         49.04078        39.37697        -0.25240
C         50.26988        41.52715        -0.06340
C         49.04644        42.26455        -0.19876
C         50.23557        44.35924         0.25746
C         49.01778        43.64723        -0.00648
C         50.23633        45.77467         0.41115
C         48.98262        46.51112         0.27634
C         50.17807        48.65997         0.63529
C         48.96431        47.88981         0.32028
C         50.24366        50.09411         0.28636
C         49.07889        50.78037        -0.11662
C         50.28901        52.89979         0.12657
C         49.08591        52.18409        -0.10792
C         50.23878        54.34625         0.25940
C         49.02913        55.02398         0.39514
C         50.20758        57.26713         0.49253
C         48.97716        56.45160         0.67440
C         50.19886        58.66148         0.99225
C         49.02038        59.20385         1.42000
C         50.18181        61.33488         2.08939
C         48.94751        60.48275         2.23079
C         50.15060        62.74334         2.04040
C         48.91213        63.46196         2.16525
C         50.12541        65.59124         1.90913
C         48.88773        64.88290         2.11046
C         50.11254        67.06399         1.94602
C         48.82714        67.75452         1.82337
C         50.05304        69.90731         1.02122
C         48.80730        69.15383         1.35350
C         49.98191        71.37959         0.78711
C         48.79137        72.04650         0.77239
C         49.86037        74.06697        -0.17554
C         48.69726        73.43417         0.31947
C         51.46618        42.23137         0.19495
C         52.67750        44.35079         0.58203
C         51.46909        43.63621         0.33438
C         52.67363        45.72657         0.74998
C         51.45091        46.44628         0.66797
C         52.73721        48.65462         0.74073
C         51.46534        47.90984         0.86700
C         52.73374        50.03857         0.55801
C         51.48578        50.77731         0.36769
C         52.80744        52.87947        -0.09114
C         51.50621        52.17832         0.20727
C         52.80934        54.32791         0.36886
C         51.51973        55.07111         0.45741
C         52.85422        57.32873         0.33930
C         51.51760        56.56283         0.27513
C         52.76186        58.64154         1.09573
C         51.48345        59.47740         0.96740
C         52.69194        61.37785         1.98330
C         51.45686        60.54803         2.11565
C         52.63713        62.78265         1.85885
C         51.38117        63.48791         1.88522
C         52.59429        65.65161         1.52124
C         51.36247        64.91168         1.80891
C         52.58070        67.02607         1.30135
C         51.40357        67.83020         1.65133
C         52.42778        69.82374         0.31702
C         51.43289        69.34616         1.37313
C         52.28005        71.10161        -0.17237
C         51.28278        72.07232         0.44676
C         52.15404        73.94378        -0.98223
C         51.08769        73.37628        -0.30747
C         53.94952        46.43129         1.15845
C         55.15766        48.60305         0.97317
C         53.96347        47.92518         0.90852
C         55.20881        50.03148         0.85723
C         53.98820        50.76410         0.58500
C         55.27449        52.87572         0.52913
C         54.03843        52.14352         0.38907
C         55.29824        54.26885         0.48527
C         54.09341        55.09184         0.07912
C         55.20056        57.05816         1.17534
C         54.06472        56.47726         0.68919
C         55.14557        58.39964         1.87709
C         53.89307        59.21003         1.59364
C         55.12789        61.32984         1.86187
C         53.91942        60.65343         1.88266
C         55.12203        62.79832         1.84352
C         53.84640        63.51187         1.69326
C         55.01757        65.52876         0.92811
C         53.84353        64.90271         1.40332
C         55.00334        66.95982         0.55639
C         53.75950        67.74933         0.76989
C         54.61597        69.49306        -0.81657
C         53.58901        69.01387        -0.00294
C         54.43696        70.78595        -1.52332
C         53.21290        71.60305        -1.20181
C         54.51229        73.68541        -1.92499
C         53.23928        73.10700        -1.51525
C         56.40706        50.71422         1.01638
C         57.68268        52.78181         1.17488
C         56.48548        52.13425         0.89148
C         57.85515        54.20493         0.96176
C         56.54641        55.01135         0.64015
C         57.66663        57.04578         1.52800
C         56.49516        56.39008         1.13943
C         57.63460        58.49207         1.73085
C         56.44246        59.16066         1.71367
C         57.64164        61.37803         1.51974
C         56.35710        60.61572         1.36618
C         57.62788        62.71094         1.15241
C         56.38589        63.49161         1.35357
C         57.29701        65.32136        -0.01362
C         56.23366        64.80221         0.71188
C         57.28247        66.74947        -0.38430
C         55.91182        67.34962        -0.58917
C         57.01011        69.40145        -1.54099
C         55.89036        68.81463        -0.96086
C         56.94417        70.68553        -2.35395
C         55.63112        71.45377        -2.18004
C         56.89417        73.60324        -2.39232
C         55.65691        72.94182        -2.20808
C         58.96370        54.95964         1.55081
C         60.19721        57.05372         2.04809
C         58.92200        56.32276         1.65745
C         60.17826        58.50315         1.61763
C         58.92691        59.21999         2.07945
C         60.15631        61.36986         1.12116
C         58.91129        60.69305         1.71022
C         59.97913        62.65099         0.42710
C         58.77281        63.33716         0.57045
C         59.70345        65.16495        -0.96698
C         58.53704        64.55555        -0.22826
C         59.59630        66.55607        -1.59166
C         58.45752        67.38566        -1.01674
C         59.46439        69.40911        -1.94693
C         58.29461        68.74453        -1.59290
C         59.43452        70.84267        -2.19730
C         58.20311        71.51143        -2.24940
C         59.35804        73.65120        -2.52943
C         58.15004        72.93219        -2.40680
C         61.26949        59.12107         1.09273
C         62.40059        61.15557         0.17583
C         61.32628        60.54022         0.76941
C         62.37285        62.56214        -0.19237
C         61.11573        63.24379        -0.21964
C         62.20668        65.28980        -1.00698
C         61.04066        64.57546        -0.72816
C         62.20339        66.79020        -1.20465
C         60.85987        67.37884        -1.56609
C         61.97347        69.47738        -2.09620
C         60.75415        68.72516        -1.84527
C         61.91333        70.88608        -2.33892
C         60.65524        71.57036        -2.33318
C         61.82054        73.71273        -2.71000
C         60.61208        72.99429        -2.52363
C         63.53111        63.27466        -0.53595
C         64.65973        65.43726        -1.03648
C         63.47441        64.65248        -0.86863
C         64.67577        66.74079        -1.55460
C         63.33599        67.26853        -2.13736
C         64.26760        69.52849        -2.77563
C         63.19220        68.78709        -2.28745
C         64.34795        70.94143        -2.71090
C         63.10967        71.62444        -2.57485
C         64.28471        73.73035        -2.98734
C         63.06767        73.05237        -2.74807
C         65.90752        67.43922        -1.50644
C         67.03181        69.69146        -1.93752
C         66.16589        68.64640        -2.20721
C         66.87623        71.03325        -2.47742
C         65.60387        71.64343        -2.77330
C         66.73870        73.82613        -3.03720
C         65.53627        73.06821        -2.95171
C         68.02496        71.85216        -2.49765
C         67.96319        73.21286        -2.82728
O         43.28246        67.56483         3.46911
O         32.49210        58.89362        -2.49036
O         37.89551        61.28972        -0.87215
O         44.44333        37.64284         0.78594
O         39.42225        46.24283         0.91975
O         52.24463        54.61884         1.67443
O         37.10760        54.46395         1.51950
O         42.85284        49.27615        -2.16771
O         35.21129        61.62563        -1.78716
O         42.70995        45.03561         1.21062
O         50.66036        48.37717         2.01233
O         39.64608        48.12893        -2.20978
O         47.71186        70.94159         2.68231
O         52.59843        72.09781        -2.41313
O         50.75474        57.02451        -0.88675
O         58.80249        64.24518        -1.67937
O         49.32919        69.20470        -0.05237
O         43.62428        39.72845        -2.27229
O         33.20547        66.85701        -0.80285
O         50.98315        67.60299         3.04597
O         25.46785        71.78106         1.06458
O         54.92190        67.85897         1.69794
O         57.53825        54.70449        -0.38022
O         58.28656        67.46559         0.44285
O         36.79281        71.35637        -0.61682
O         65.32877        68.82866        -3.34136
O         35.79588        70.26353         2.85867
O         45.02854        66.04130         0.79215
O         47.27668        52.79595        -1.68045
O         46.27479        64.21476         3.80831
O         33.22968        57.10402         0.76857
O         43.72315        63.95520         3.62768
O         54.61504        70.77280        -2.98276
O         31.60030        63.99743         1.07110
O         44.84839        59.11315        -0.49200
O         39.63874        52.62107        -1.71406
O         56.03644        63.48657         2.78015
O         34.14824        72.94998         2.75865
O         59.85120        61.43480         2.56077
O         43.01526        62.64397         0.17501
O         51.83569        69.97157         2.62044
H         51.55100        69.36883         3.35020
O         39.13827        50.59415         1.27516
H         38.98595        49.66262         1.54237
O         53.14603        57.73944        -1.05071
H         52.27334        57.75170        -1.52129
O         56.14778        60.59151        -0.11078
H         55.34583        60.05295        -0.29256
O         59.27113        66.38076        -2.99791
H         58.93311        65.45967        -3.10141
O         41.33313        60.89531        -0.79579
H         41.71739        61.77244        -1.03050
O         33.29963        63.55528        -2.11524
H         34.11655        63.10153        -2.43530
O         55.34820        66.64684        -1.74141
H         55.83199        66.93043        -2.54622
O         35.02319        59.17050        -2.43876
H         34.32624        59.41232        -3.08964
O         30.62207        61.80095        -2.93881
H         30.83022        60.92008        -3.31673
O         52.87284        52.90081        -1.55053
H         53.53671        53.58518        -1.81395
O         42.45966        71.80428         3.04079
H         43.18528        71.34611         3.51766
O         51.89771        72.51364         1.69757
H         51.95491        71.72380         2.29531
O         56.96770        70.21410        -3.74087
H         56.02533        70.06982        -3.99731
O         47.95165        41.60107        -2.19261
H         47.15311        41.16686        -2.56353
O         38.90914        56.74068        -1.42293
H         39.73318        56.46547        -1.87764
O         33.84582        69.24461         3.43102
H         33.71093        70.18626         3.66767
O         51.55570        59.81132         3.36017
H         50.63683        59.68827         3.71604
O         55.08940        45.81051         0.55418
H         55.03828        45.94876        -0.41357
O         27.19282        69.76885         1.88814
H         26.39474        70.34582         1.98684
O         61.33887        56.36123         1.54986
H         61.22692        56.23239         0.58578
O         54.19788        55.26063        -1.37280
H         53.95005        56.19815        -1.58517
O         37.38827        65.50033         3.55133
H         36.51547        65.93624         3.74122
O         51.51722        60.19753        -0.28569
H         51.39484        59.55336        -1.01462
O         47.47389        49.20024         1.63090
H         47.69993        48.48830         2.26623
O         45.43623        49.92021        -2.43732
H         44.53926        49.62832        -2.74978
O         48.15537        35.39167         1.22584
H         47.42044        35.70986         1.79012
O         35.07244        66.82630         3.32297
H         34.94063        67.71319         3.73396
O         27.83321        65.58387        -2.84325
H         27.44480        65.10355        -3.60368
O         55.05485        58.08740         3.30590
H         55.94924        57.83766         3.62172
O         48.90028        59.98103         3.62438
H         48.61838        60.75616         4.17881
O         27.17491        65.27734         0.74171
H         27.65443        65.60975         1.52933
O         37.94506        56.94115         2.11195
H         37.68056        56.00761         2.31197
O         48.12961        49.56997        -1.94917
H         47.31120        49.72949        -2.48058
O         48.00594        62.41040         4.07901
H         47.58597        63.16584         4.56173
O         62.54467        67.36246         0.09917
H         61.84176        67.12079         0.73837
O         58.96565        59.16174         3.54047
H         59.50405        59.93514         3.83063
O         63.15951        66.67042        -3.43178
H         63.87405        67.00562        -4.01421
O         38.56593        60.53206         2.65363
H         38.99366        59.73957         3.04148
O         46.42163        55.96579         2.55227
H         47.23462        55.47720         2.80209
H         23.26960        75.56772        -1.42692
H         25.51652        75.50912        -0.45231
H         27.91666        75.45865         0.23306
H         30.28689        75.37470         0.80258
H         32.65297        75.35828         1.05695
H         35.28877        75.33197         1.02609
H         37.68257        75.06138         0.13960
H         40.02776        75.03185         0.01275
H         42.50597        75.06758         0.12022
H         44.95153        75.07663         0.02571
H         47.39896        75.10831        -0.08876
H         49.76872        75.07019        -0.62001
H         52.08451        74.98558        -1.33431
H         54.61441        74.77825        -1.84125
H         56.89096        74.70199        -2.44809
H         59.32385        74.74250        -2.65959
H         61.78032        74.80203        -2.85741
H         64.26774        74.81963        -3.14432
H         66.67874        74.90778        -3.22318
H         22.53747        69.74637        -2.50681
H         21.44309        71.92883        -2.88611
H         21.41552        74.40488        -2.60964
H         24.94876        65.52328        -2.37850
H         23.68696        67.59221        -2.30871
H         27.14433        61.02950        -1.17060
H         26.02077        63.23985        -1.85421
H         29.53462        56.79264        -1.17769
H         28.36921        58.92965        -0.99682
H         31.96140        52.43635        -1.07848
H         30.76596        54.58890        -1.18765
H         34.35603        48.09775        -1.06069
H         33.15650        50.26566        -1.03589
H         36.91900        43.71301        -1.07045
H         35.61761        45.91138        -1.21153
H         39.39543        39.50444        -1.02621
H         38.16894        41.63383        -1.02015
H         41.98525        35.23209        -1.33602
H         40.67125        37.37012        -1.27551
H         45.38362        31.90443        -1.24952
H         43.23319        33.14955        -1.39090
H         47.50522        33.10421        -0.72040
H         48.68592        35.32591        -0.76120
H         49.96878        37.40749        -0.09582
H         51.20456        39.55832        -0.05147
H         52.41216        41.67748         0.28767
H         53.62559        43.79945         0.66347
H         54.06663        46.27842         2.26894
H         56.09040        48.04702         1.14755
H         57.32689        50.15259         1.23649
H         58.50476        52.21526         1.63788
H         59.88576        54.42379         1.82459
H         60.27799        57.05085         3.17084
H         62.16157        58.51132         0.87470
H         63.31343        60.57874        -0.03771
H         64.50961        62.77365        -0.49191
H         65.61950        64.98028        -0.74783
H         66.69352        67.03346        -0.84974
H         67.84188        69.53907        -1.20835
H         68.99804        71.40249        -2.25356
H         68.88923        73.80287        -2.87037
