         404
 CSIRO Nanostructure Databank - Neutral Graphene Oxide Data Set
C          1.22202         1.91401        -0.08952
C          1.18609         3.34351         0.03315
C          2.40150         1.23184        -0.21986
C          2.32093         4.10849        -0.08929
C          1.14811         6.29442         0.17169
C          1.14594         7.68904         0.23435
C          2.33537         5.56214         0.02190
C          2.33042         8.43898         0.14884
C          1.14227        10.64179         0.16287
C          1.14604        12.06634         0.20059
C          2.30337         9.89314         0.18034
C          2.31099        12.81533         0.19429
C          1.09884        15.03867         0.26102
C          1.07681        16.39667         0.32970
C          2.32564        14.28003         0.10696
C          2.26338        17.19215         0.00777
C          2.38362        18.59541         0.44071
C          3.65754         1.93527        -0.25313
C          3.61422         3.42910        -0.49278
C          4.85758         1.27440        -0.17459
C          4.81013         4.14463         0.09180
C          3.57416         6.29590        -0.04505
C          3.57136         7.72472         0.01440
C          4.82250         5.61334        -0.08429
C          4.81575         8.40929        -0.11266
C          3.58374        10.62981         0.26117
C          3.57915        12.10993         0.11756
C          4.87213         9.87660         0.07196
C          4.77011        12.77763        -0.00372
C          3.53479        14.94940         0.00207
C          3.58117        16.40221        -0.17039
C          4.83784        14.24671         0.29506
C          4.84998        17.11549         0.05826
C          3.58552        19.21652         0.49582
C          4.84496        18.51903         0.27879
C          6.12777         1.95529        -0.00698
C          6.09877         3.41817         0.24919
C          7.31109         1.29509         0.05934
C          7.37144         4.17278         0.15043
C          6.04273         6.29255        -0.20492
C          6.01299         7.71840        -0.30246
C          7.32133         5.58544        -0.12289
C          7.23543         8.45917        -0.68693
C          6.08725        10.60800        -0.35614
C          5.98283        12.07452        -0.47585
C          7.26325         9.94038        -0.63068
C          7.21890        12.85619        -0.80000
C          6.07998        14.97478        -0.17365
C          6.07416        16.40210        -0.02019
C          7.27651        14.30069        -0.43966
C          7.30487        17.11147         0.02419
C          6.06229        19.20248         0.40167
C          7.30290        18.52438         0.26724
C          8.59965         1.95027         0.49886
C          8.58116         3.48566         0.29991
C          9.77672         1.27867        -0.21336
C          9.79073         4.25255         0.27461
C          8.52169         6.30068        -0.28574
C          8.53767         7.71513        -0.73389
C          9.75158         5.63416        -0.09201
C          9.81166         8.49300        -0.76959
C          8.51575        10.62507        -0.88723
C          8.49218        12.09349        -1.04059
C          9.75438         9.94689        -0.93106
C          9.79774        12.86520        -0.93348
C          8.52971        14.98471        -0.38013
C          8.54198        16.40354        -0.09666
C          9.77275        14.28899        -0.52759
C          9.75274        17.10320         0.03359
C          8.53303        19.20740         0.38910
C          9.76409        18.52265         0.25895
C         11.06266         1.55868         0.18012
C         11.07212         3.70078         0.56912
C         12.34171         1.20826        -0.33113
C         12.28146         4.23165         0.09413
C         11.02086         6.42857        -0.05946
C         10.99613         7.80250        -0.67559
C         12.23317         5.60192        -0.41418
C         12.29185         8.46838        -0.91485
C         10.99184        10.69670        -0.87283
C         11.03100        12.08826        -0.73291
C         12.28573         9.98870        -0.95351
C         12.26375        12.80476        -0.55372
C         11.00076        14.92539        -0.32090
C         11.04297        16.34652         0.18542
C         12.24583        14.22630        -0.43323
C         12.22653        17.09675        -0.38295
C         10.99548        19.21642         0.38118
C         12.22668        18.64766        -0.13032
C         13.51089         2.01246        -0.13209
C         13.49199         3.47023         0.00074
C         14.76236         1.37686        -0.26079
C         14.72582         4.19417        -0.05698
C         13.56694         6.35196        -0.56218
C         13.55417         7.80664        -0.53421
C         14.75728         5.62491        -0.15994
C         14.73165         8.51514        -0.29865
C         13.53352        10.67719        -0.57615
C         13.50493        12.09391        -0.47475
C         14.73346         9.96705        -0.36039
C         14.73822        12.80356        -0.38210
C         13.49746        14.94517        -0.43716
C         13.52136        16.39632        -0.43312
C         14.70508        14.22662        -0.47618
C         14.69576        17.13614        -0.49171
C         13.52560        19.26119         0.03470
C         14.71882        18.56688        -0.21530
C         15.99100         2.06410        -0.08329
C         15.97092         3.49208         0.05680
C         17.22914         1.39301        -0.03695
C         17.17184         4.19184         0.33323
C         15.90956         6.38253         0.14066
C         15.94208         7.79828         0.03916
C         17.09063         5.63956         0.60574
C         17.18182         8.52972         0.21028
C         15.97028        10.67576        -0.19765
C         15.97667        12.09478        -0.29842
C         17.19569         9.95809         0.02253
C         17.23197        12.81665        -0.31106
C         15.96959        14.91563        -0.73601
C         15.97168        16.46247        -0.76529
C         17.22717        14.20212        -0.51452
C         17.23662        17.15401        -0.48526
C         15.96708        19.23323        -0.12334
C         17.21505        18.56149        -0.22358
C         18.43937         2.09258         0.18642
C         18.40715         3.51846         0.40684
C         19.67654         1.41204         0.18272
C         19.64243         4.24213         0.63799
C         18.38164         6.40937         0.78844
C         18.39295         7.85491         0.48633
C         19.62924         5.63767         0.75249
C         19.64366         8.55233         0.50030
C         18.43125        10.66852         0.08162
C         18.46664        12.08788        -0.12529
C         19.65865         9.96924         0.31005
C         19.70961        12.76896        -0.09878
C         18.46647        14.96777        -0.69227
C         18.45142        16.44597        -0.48498
C         19.76821        14.19656        -0.46011
C         19.64943        17.13945        -0.21614
C         18.44382        19.25644        -0.11568
C         19.67460        18.57044        -0.13152
C         20.90340         2.09569         0.37442
C         20.89354         3.51113         0.62517
C         22.13627         1.40967         0.28028
C         22.13304         4.17122         0.82244
C         20.85885         6.40339         0.98106
C         20.87475         7.86182         0.69752
C         22.13453         5.62933         1.09596
C         22.09429         8.57190         0.70882
C         20.89333        10.67986         0.42723
C         20.91413        12.10849         0.24299
C         22.10133         9.97752         0.64464
C         22.16150        12.82574         0.29648
C         20.96953        14.94676        -0.10056
C         20.88480        16.40115         0.05607
C         22.16425        14.26241         0.15014
C         22.17823        17.18617         0.11893
C         20.92311        19.28626        -0.11675
C         22.16480        18.64788        -0.11450
C         23.37395         2.07679         0.43111
C         23.35262         3.47784         0.74690
C         24.60475         1.39921         0.20832
C         24.63740         4.15161         1.04842
C         23.40047         6.36058         0.79313
C         23.39105         7.84200         0.65189
C         24.66443         5.64964         1.14980
C         24.67541         8.58345         0.75168
C         23.35933        10.73018         1.01197
C         23.38402        12.16442         0.53844
C         24.64979         9.98984         0.73761
C         24.61830        12.86338         0.51533
C         23.41550        14.96727         0.15633
C         23.40746        16.40751        -0.17203
C         24.62848        14.28482         0.26425
C         24.69727        17.17794        -0.23777
C         23.41361        19.32475        -0.16274
C         24.65740        18.65603        -0.10611
C         25.86544         2.05692         0.20003
C         25.93358         3.45135         0.71290
C         27.02684         1.42088        -0.19651
C         27.15011         4.26314         0.43830
C         25.94266         6.40237         0.95991
C         25.90244         7.86199         0.69601
C         27.17371         5.66061         0.61467
C         27.13570         8.53499         0.62152
C         25.85692        10.73139         0.74310
C         25.85943        12.14895         0.66782
C         27.12698         9.98940         0.82173
C         27.10871        12.86797         0.53827
C         25.88941        15.01186         0.21515
C         25.93198        16.44262         0.06700
C         27.08307        14.30544         0.39953
C         27.12821        17.17536         0.14523
C         25.88431        19.32755        -0.00357
C         27.12467        18.62639         0.06409
C         28.31267         2.14988        -0.44886
C         28.32384         3.59662         0.00823
C         29.54837         1.44124         0.04740
C         29.53284         4.29241        -0.06760
C         28.36586         6.40310         0.38457
C         28.37389         7.84575         0.45721
C         29.56891         5.69776         0.11403
C         29.60143         8.55975         0.22486
C         28.43430        10.74658         0.58447
C         28.31745        12.18128         0.36031
C         29.63351         9.99336         0.14860
C         29.50761        12.88163        -0.13968
C         28.34069        15.04933         0.51225
C         28.37201        16.49262         0.29170
C         29.65899        14.29731         0.25476
C         29.60014        17.16033         0.17534
C         28.35331        19.30038         0.10637
C         29.59789        18.60612         0.12204
C         30.74486         2.10242         0.07759
C         30.79409         3.53545        -0.43129
C         31.97236         1.45393         0.44835
C         32.03157         4.27487         0.00477
C         30.81261         6.41880         0.00626
C         30.81679         7.84689         0.00792
C         32.02961         5.70613        -0.00866
C         32.05079         8.55224        -0.20974
C         30.79800        10.66517        -0.24466
C         30.77911        12.12855        -0.45678
C         32.04319         9.96759        -0.37676
C         32.03664        12.88493        -0.50000
C         30.85999        15.03128        -0.11814
C         30.84195        16.43825         0.00670
C         32.05535        14.29895        -0.45775
C         32.06600        17.15630        -0.10940
C         30.82337        19.28562         0.10787
C         32.06084        18.58382         0.03858
C         33.17827         2.14602         0.51986
C         33.17841         3.58299         0.34389
C         34.43273         1.47069         0.73377
C         34.39600         4.34857         0.66121
C         33.28498         6.41920        -0.02397
C         33.28921         7.85224        -0.25233
C         34.46623         5.74432         0.20720
C         34.51411         8.54699        -0.40631
C         33.26869        10.65698        -0.64332
C         33.23575        12.12393        -0.89935
C         34.48588         9.95564        -0.62776
C         34.51632        12.89151        -1.13712
C         33.28861        15.02948        -0.57731
C         33.29291        16.45164        -0.34794
C         34.53777        14.34432        -0.80490
C         34.50551        17.16965        -0.31825
C         33.29064        19.25936         0.13950
C         34.51357        18.55398         0.03938
C         35.63946         2.13379         0.84789
C         35.66267         3.61155         0.99633
C         36.88599         1.42129         0.76780
C         36.97442         4.35208         0.92321
C         35.79130         6.31981        -0.21711
C         35.78331         7.83456        -0.35181
C         36.96888         5.86601         0.65473
C         37.00099         8.47694        -0.43744
C         35.77541        10.63941        -0.92122
C         35.80972        12.11591        -1.19522
C         37.06263         9.95757        -0.54676
C         37.10289        12.83695        -1.06321
C         35.74475        15.01885        -0.78066
C         35.79949        16.53609        -0.75297
C         37.03039        14.31775        -1.00570
C         36.98962        17.09090         0.01134
C         35.73428        19.18713         0.38741
C         36.93392        18.43998         0.50938
C         38.10142         2.05447         0.65200
C         38.21014         3.53597         0.73468
C         39.32237         1.31230         0.45913
C         39.41984         4.18011         0.18335
C         38.25570         6.39159         0.01177
C         38.25781         7.73130        -0.38933
C         39.42535         5.57253        -0.12491
C         39.46195         8.36032        -0.88882
C         38.36737        10.66827        -0.84730
C         38.31216        12.17376        -1.10212
C         39.52215         9.76447        -1.20069
C         39.53971        12.96119        -0.92187
C         38.27910        15.04532        -0.53357
C         38.17721        16.37907         0.09196
C         39.50511        14.26284        -0.35734
C         39.34064        16.93272         0.71824
C         38.07006        18.99329         1.13033
C         39.26561        18.25483         1.26255
C         40.49147         1.94529         0.16246
C         40.54816         3.37750        -0.05319
C         41.73219         3.97895        -0.54675
C         40.59797         6.13648        -0.70665
C         40.59597         7.52012        -1.12266
C         41.74947         5.32053        -0.86594
C         41.71261         8.02493        -1.83070
C         40.67991        10.20068        -1.86443
C         40.81395        12.48916        -1.28832
C         41.73288         9.33834        -2.23291
C         41.99226        13.12234        -0.88181
C         40.67630        14.89407         0.12808
C         40.57558        16.21528         0.76443
C         41.91887        14.26941        -0.09175
C         41.67016        16.80182         1.40736
C         40.40961        18.81196         1.90301
C         41.58088        18.08509         1.98189
O         25.43874         3.52167         2.09386
O         37.88990        15.02483        -1.97171
O         19.28317        14.51395        -1.82172
O         10.82864         6.54554         1.34976
O         12.39722         9.18894        -2.18464
O         29.83396        12.57922        -1.53085
O         11.98645        17.97748        -1.45503
O         17.53359         6.04152         1.94411
O         29.19727        14.57060         1.60884
O         21.52543        16.80643         1.35482
O         15.97429        15.67973        -1.99625
O         23.41832         6.92943        -0.55315
O         11.15175         2.49896         1.26033
O          4.41386        10.24889         1.43574
O         34.82764         4.12805         2.07793
O          6.25625        12.56306        -1.86967
O         24.01146        16.70940        -1.46869
O         35.83829        11.15111        -2.30058
O         33.65521        12.55143        -2.26172
O         27.99205        10.38031         1.94365
O         21.47252         6.06270         2.31421
O         37.82241         4.05327         2.08078
O         37.86898        10.51232         0.54537
O         25.36871         6.13862         2.31645
O          7.76308         7.93476        -1.96661
O         40.91160        11.50529        -2.26917
O         12.81167         5.78979        -1.71299
O          9.17547        12.59016        -2.23599
O          5.24548         3.73942         1.42329
O          2.82288        16.91711        -1.31320
O          4.97935        14.31964         1.77808
H          4.28777        13.74011         2.16597
O         36.82788         6.51657         1.93069
H         37.30333         5.96370         2.59084
O         35.98847        16.95695        -2.15139
H         36.76656        16.44576        -2.48719
O         11.32232        16.26207         1.63051
H         10.55829        15.81893         2.05663
O         30.86817         3.47490        -1.88753
H         30.06817         2.96965        -2.18645
O         28.43789         2.19646        -1.93274
H         27.62587         2.62157        -2.28283
O         23.29409        10.82340         2.48547
H         24.11533        11.26467         2.79192
O          8.69569         1.68953         1.92199
H          9.57165         2.02951         2.21917
O          3.73875         3.61805        -1.94051
H          2.96250         3.19350        -2.36277
O         36.03704         5.74506        -1.54180
H         35.35360         6.08915        -2.15540
H          0.27446         1.36189        -0.01907
H          0.21596         3.80863         0.25953
H          2.40998         0.13170        -0.22599
H          0.18385         5.77152         0.23111
H          0.18102         8.20087         0.35092
H          0.16380        10.14464         0.11006
H          0.16890        12.56791         0.19028
H          0.17063        14.48961         0.47189
H          0.15935        16.92016         0.63775
H          1.46616        19.13358         0.72323
H          4.86185         0.17330        -0.13289
H          3.64001        20.27550         0.78983
H          7.33215         0.20336        -0.08365
H          6.06108        20.28439         0.60057
H          9.58609         0.57942        -1.03977
H          8.53488        20.29330         0.56351
H         12.46704         0.24431        -0.84699
H         11.00716        20.23810         0.78822
H         14.78803         0.28791        -0.41611
H         13.57443        20.26862         0.47319
H         17.25811         0.30124        -0.16784
H         15.96844        20.31835         0.05668
H         19.69125         0.32769        -0.00232
H         18.43370        20.35017        -0.00112
H         22.13093         0.33241         0.05747
H         20.88513        20.38441        -0.17350
H         24.56959         0.33784        -0.07965
H         23.41058        20.42501        -0.19006
H         26.97498         0.37527        -0.53754
H         25.89662        20.42743         0.02418
H         29.48140         0.38323         0.34303
H         28.36380        20.40032         0.07782
H         31.95009         0.37726         0.67658
H         30.83685        20.38511         0.13803
H         34.43458         0.37025         0.70011
H         33.30481        20.34055         0.34102
H         36.84779         0.32230         0.71404
H         35.72095        20.23914         0.70812
H         39.28577         0.21596         0.53830
H         38.02375        20.01976         1.52339
H         41.41242         1.36413         0.00999
H         42.63048         3.36297        -0.69400
H         42.68319         5.74658        -1.25344
H         42.56178         7.37986        -2.08339
H         42.58209         9.75125        -2.79148
H         42.96355        12.71815        -1.19398
H         42.84911        14.74298         0.24803
H         42.62474        16.26321         1.47738
H         40.34694        19.82281         2.33014
H         42.46150        18.51091         2.48253
