         200
 CSIRO Nanostructure Databank - Neutral Graphene Oxide Data Set
C        -11.13025         0.62899         0.50422
C         -9.92327         1.43015         0.38624
C         -8.69324         0.71661        -0.03666
C         -7.36489         1.47782         0.05573
C         -6.15058         0.65146         0.06954
C         -4.85563         1.31809         0.26064
C         -3.63891         0.64793        -0.22132
C         -2.42533         1.39532        -0.30428
C         -1.19761         0.69880        -0.48377
C          0.03723         1.41001        -0.52060
C          1.27786         0.69755        -0.60311
C          2.51247         1.42765        -0.58300
C          3.75049         0.72968        -0.61386
C          4.96827         1.46827        -0.57665
C          6.24972         0.77083        -0.71228
C          7.50433         1.48816        -0.44797
C          8.70982         0.76447        -0.28888
C          9.94493         1.50322        -0.06574
C         11.15531         0.74148         0.18773
C         -9.90753         2.76910         0.62434
C         -8.66598         3.60217         0.86686
C         -7.34310         2.87808         0.54568
C         -6.11860         3.51915         0.63891
C         -4.83362         2.80043         0.44928
C         -3.64698         3.55946         0.00084
C         -2.42985         2.82887        -0.26670
C         -1.21161         3.52077        -0.44075
C          0.02886         2.83063        -0.48037
C          1.26535         3.56236        -0.47285
C          2.49928         2.85614        -0.49098
C          3.73126         3.57559        -0.37943
C          4.97241         2.86768        -0.41100
C          6.22268         3.58973        -0.33015
C          7.45817         2.90150        -0.37219
C          8.74667         3.67027        -0.51765
C          9.94975         2.87783        -0.07918
C         -8.72392         4.97096         0.17533
C         -7.82991         5.94378         0.53518
C         -5.94495         4.91973         0.90462
C         -4.88159         5.67330         0.38416
C         -3.70875         4.94530        -0.05902
C         -2.54597         5.71729        -0.50404
C         -1.21470         4.97387        -0.65207
C          0.03956         5.72074        -0.44816
C          1.25921         4.99093        -0.37528
C          2.48915         5.70226        -0.23954
C          3.72461         4.99063        -0.23668
C          4.96317         5.69725        -0.07153
C          6.19493         5.00612        -0.12593
C          7.44173         5.71940         0.11185
C          8.65438         5.06365         0.02923
C         -7.50022         7.25615         0.05379
C         -6.21680         7.82583         0.18937
C         -4.95861         7.10831         0.25703
C         -3.72548         7.83471         0.02702
C         -2.53429         7.16396        -0.26426
C         -1.25838         7.86508        -0.48681
C          0.02288         7.12424        -0.35997
C          1.23753         7.83249        -0.13173
C          2.46893         7.12158        -0.08083
C          3.70474         7.80887         0.17188
C          4.92788         7.11043         0.17569
C          6.16623         7.80623         0.44850
C          7.36906         7.11894         0.44096
C         -6.15090         9.27507         0.12651
C         -4.98531         9.96574         0.23180
C         -3.70914         9.28873         0.15521
C         -2.52688         9.99408         0.19724
C         -1.24397         9.38070        -0.16472
C          0.02773         9.96020         0.25538
C          1.22232         9.25541         0.17073
C          2.46708         9.90337         0.47499
C          3.67572         9.22521         0.45205
C          4.92483         9.89743         0.72969
C          6.10804         9.22345         0.72767
C        -11.09937        -0.72844         0.43933
C         -9.87087        -1.47620         0.21894
C         -8.65307        -0.74892        -0.00655
C         -7.43894        -1.44066        -0.20746
C         -6.18281        -0.71040        -0.20402
C         -4.94180        -1.44754        -0.36369
C         -3.67673        -0.73074        -0.42429
C         -2.43325        -1.44424        -0.56078
C         -1.20157        -0.72684        -0.54996
C          0.03243        -1.43902        -0.62297
C          1.28003        -0.71538        -0.64952
C          2.52319        -1.43086        -0.59053
C          3.75448        -0.71116        -0.56041
C          4.96035        -1.43473        -0.36128
C          6.25565        -0.75392        -0.53951
C          7.49986        -1.37383        -0.10654
C          8.70235        -0.66587        -0.12916
C          9.93809        -1.38987         0.14933
C         11.15628        -0.61881         0.25396
C         -9.86528        -2.86376         0.18149
C         -8.66544        -3.60708        -0.09559
C         -7.42711        -2.86688        -0.27208
C         -6.19961        -3.57309        -0.42608
C         -4.97032        -2.82971        -0.49263
C         -3.71369        -3.59887        -0.80834
C         -2.42801        -2.85405        -0.56274
C         -1.20319        -3.55290        -0.47767
C          0.01588        -2.84496        -0.57535
C          1.28500        -3.64191        -0.74687
C          2.53638        -2.84491        -0.49661
C          3.71980        -3.53490        -0.19965
C          4.93372        -2.80990        -0.09574
C          6.15549        -3.51423         0.33739
C          7.47258        -2.76328         0.37353
C          8.72834        -3.54044         0.34671
C          9.94141        -2.77271         0.28964
C         -8.67390        -4.99218        -0.17414
C         -7.47281        -5.75772        -0.65968
C         -6.18680        -5.00571        -0.44119
C         -4.98912        -5.72083        -0.25746
C         -3.74031        -4.94703        -0.13156
C         -2.45006        -5.68351         0.01993
C         -1.18097        -4.99642        -0.26344
C         -0.00473        -5.68818        -0.07533
C          1.25428        -4.88647         0.14233
C          2.52518        -5.68700         0.04158
C          3.72802        -4.98505        -0.01560
C          4.97186        -5.68692         0.13315
C          6.19358        -4.98041         0.26425
C          7.42860        -5.66312         0.40571
C          8.67054        -4.92283         0.43937
C         -7.40176        -7.19171        -0.20944
C         -6.20825        -7.84756        -0.01222
C         -4.95091        -7.12316        -0.05929
C         -3.70805        -7.82470         0.11278
C         -2.46848        -7.14745         0.08659
C         -1.23078        -7.83788         0.15743
C          0.00423        -7.11798         0.12789
C          1.23938        -7.81100         0.23538
C          2.49327        -7.10274         0.18373
C          3.72116        -7.81373         0.26086
C          4.95949        -7.10651         0.24905
C          6.20318        -7.80255         0.39945
C          7.40640        -7.08376         0.45041
C         -6.15314        -9.27512         0.25362
C         -4.97180        -9.94063         0.36804
C         -3.69684        -9.25729         0.28204
C         -2.48729        -9.94195         0.37646
C         -1.22755        -9.26769         0.30859
C          0.00764        -9.93963         0.40419
C          1.23998        -9.24217         0.36486
C          2.48949        -9.92707         0.44810
C          3.70731        -9.24577         0.40110
C          4.97691        -9.92581         0.50351
C          6.15991        -9.24227         0.50563
O         -4.60070         1.90510         1.60822
O         -6.94111         5.59191         1.60837
O          6.68613        -2.96408         1.60677
O         -1.24984         8.86210        -1.54923
O         -3.13700        -5.01314         1.18634
O         -7.65458        -5.82694        -2.14248
H         -7.62929        -4.90289        -2.47302
O          6.34294        -0.12235        -1.87042
O          8.92914         3.84127        -1.98967
H          8.89161         2.94363        -2.38577
O         -8.09338         1.32566        -1.22904
O         -2.00528         5.36707        -1.82720
O          1.18231        -4.39742         1.51522
H          1.08389        -5.17088         2.10886
O         -8.70035         3.78596         2.30952
H         -8.00917         4.45484         2.53400
O          1.33549        -4.06388        -2.14001
H          0.48920        -4.51343        -2.34870
O         -3.74509        -3.89535        -2.24747
H         -3.79931        -3.04211        -2.72759
H         12.09734        -1.15879         0.43718
H         12.09569         1.29837         0.31447
H         10.89609         3.41832         0.07831
H          9.58736         5.61686         0.21722
H          8.30543         7.65978         0.64585
H          7.04902         9.75250         0.93924
H          4.90006        10.97601         0.94444
H          2.45290        10.97848         0.70954
H          0.03093        10.98395         0.65979
H         -2.54414        11.06909         0.43492
H         -4.99145        11.06446         0.27872
H         -7.10452         9.82305         0.09295
H         -8.30804         7.90300        -0.32363
H         -9.42625         5.13250        -0.65406
H        -10.85271         3.25853         0.90937
H        -12.07851         1.15050         0.70247
H        -12.02868        -1.30279         0.56906
H        -10.80559        -3.41613         0.32720
H         -9.62480        -5.53391        -0.05486
H         -8.34480        -7.75861        -0.16602
H         -7.10373        -9.82482         0.32291
H         -4.96677       -11.02831         0.53440
H         -2.49570       -11.03412         0.51308
H          0.01799       -11.03481         0.51187
H          2.48664       -11.02234         0.55644
H          4.97542       -11.02223         0.59493
H          7.11020        -9.78869         0.59990
H          8.35567        -7.63054         0.55648
H          9.60920        -5.49664         0.48209
H         10.90218        -3.29686         0.41003
