         260
 CSIRO Nanostructure Databank - Neutral Graphene Oxide Data Set
C         30.41293        31.72554        -0.91324
C         30.46522        32.95740        -1.21401
C         30.52132        35.93145        -2.04450
C         30.44351        37.17001        -1.97437
C         30.21442        40.39479        -0.82717
C         30.36994        41.60357        -0.62601
C         32.69391        28.92889         0.09419
C         31.64653        29.57109        -0.11801
C         32.74004        31.71468        -0.29904
C         31.42403        30.94025        -0.37622
C         32.80793        33.03763        -0.97447
C         31.65892        33.72130        -1.41903
C         32.78491        35.92722        -1.35596
C         31.67466        35.14018        -1.67625
C         32.72042        37.43668        -1.30345
C         31.32791        38.09042        -1.33743
C         32.94903        40.34988        -0.10295
C         31.01689        39.22070        -0.63006
C         32.81589        41.82779        -0.08727
C         31.43686        42.53148        -0.27338
C         32.70869        44.60706        -0.54575
C         31.68074        43.93094        -0.65816
C         35.46503        27.28790         0.38013
C         35.28689        28.73723         0.57148
C         34.01237        29.49249         0.41809
C         35.31771        31.50198        -0.62567
C         34.02899        30.99453         0.05125
C         35.37734        33.02682        -0.70712
C         34.10890        33.69873        -1.12757
C         35.34996        35.98990        -1.00401
C         34.08835        35.23739        -1.32672
C         35.20437        37.40389        -0.49631
C         33.98616        38.19965        -0.92491
C         35.32501        40.36658        -0.69981
C         34.02807        39.66293        -0.55751
C         35.35892        41.87722        -0.55772
C         34.02377        42.62240        -0.65823
C         35.36784        44.82860        -0.45537
C         34.06378        44.11985        -0.04836
C         35.56463        46.25224         0.03373
C         37.92576        27.18772         0.26328
C         36.56871        26.73714         0.32724
C         37.92501        28.66840         0.24923
C         36.64354        29.45504         0.40318
C         37.88734        31.52106        -0.54616
C         36.60934        30.88933        -0.05614
C         37.88703        33.02766        -0.68042
C         36.55887        33.71287        -0.69282
C         37.75556        35.87090         0.01925
C         36.61842        35.20769        -0.77229
C         37.76031        37.36715        -0.26461
C         36.46329        38.11774        -0.11666
C         37.78623        40.30059         0.12259
C         36.56481        39.59993        -0.36537
C         37.72220        41.75557         0.52376
C         36.59933        42.57112        -0.07125
C         37.77071        44.70598         0.79973
C         36.52624        44.03912         0.26732
C         37.90799        46.19687         0.79329
C         36.67580        46.73156         0.32105
C         40.30787        24.38431         0.67797
C         39.27586        25.02378         0.36855
C         40.40903        27.10668         0.19089
C         39.07385        26.42813         0.20183
C         40.39055        28.61242         0.07113
C         39.11171        29.34144         0.05725
C         40.50963        31.56076        -0.24108
C         39.17285        30.78472        -0.34406
C         40.37649        33.06915         0.04122
C         39.17575        33.79608        -0.45743
C         40.30600        35.99000        -0.01657
C         39.12020        35.25356        -0.20544
C         40.29522        37.38961         0.10361
C         39.04230        38.14116        -0.11771
C         40.20461        40.32397         0.34438
C         38.93117        39.57805         0.26288
C         40.23559        41.69273         0.93878
C         38.94255        42.46301         1.08740
C         40.40473        44.62306         0.90806
C         39.04573        43.98769         1.20307
C         40.12010        45.75620         1.87880
C         39.04687        46.75086         1.34086
C         40.31462        48.58448         2.14081
C         39.23573        48.11797         1.63604
C         42.85032        24.40560         1.34049
C         41.60168        24.87270         1.01985
C         42.61233        27.18506         1.57376
C         41.63072        26.38701         0.71670
C         42.66286        28.69949         1.32582
C         41.60615        29.42579         0.53339
C         42.61577        31.62532         1.23813
C         41.46138        30.86932         0.71601
C         42.63729        33.13336         1.05951
C         41.45922        33.79171         0.45794
C         42.89253        35.99950         0.47967
C         41.59833        35.25039         0.16510
C         42.85163        37.47011         0.44984
C         41.50027        38.13035         0.61179
C         42.78048        40.35146         0.13810
C         41.48524        39.59490         0.18283
C         42.80288        41.79416         0.41163
C         41.53740        42.41183         0.89334
C         42.78875        44.27900         1.81821
C         41.52964        43.87813         1.08113
C         42.74117        45.69068         2.43072
C         41.31886        46.25694         2.74526
C         42.80155        48.43508         2.81996
C         41.46511        48.14159         2.67320
C         43.84682        25.21436         1.59489
C         45.14172        27.37360         2.32478
C         44.05220        26.54826         1.65883
C         45.24290        28.80037         1.69247
C         43.93267        29.47336         1.53965
C         45.09864        31.59310         1.19349
C         43.91997        30.91174         1.22778
C         45.00176        33.01367         1.45330
C         43.95072        33.82819         1.15369
C         45.43363        36.07773         1.12889
C         44.00308        35.34965         1.33928
C         45.41546        37.56322         0.83442
C         44.04843        38.27812         0.91998
C         45.32045        40.44451         0.23035
C         44.07999        39.63403         0.24167
C         45.27303        41.81513         0.21387
C         43.99372        42.47255         0.49754
C         45.26581        44.62387         1.01819
C         43.97720        43.90216         0.92544
C         45.29863        45.90802         1.84864
C         44.08718        46.43995         2.51484
C         43.92648        47.89754         2.69391
C         47.55481        27.38652         1.79956
C         46.52788        26.82643         2.17740
C         47.66863        28.65000         1.06029
C         46.37792        29.42666         1.26290
C         47.78366        31.60368         0.91877
C         46.36529        30.86819         0.72614
C         47.80810        33.09385         0.50894
C         46.94269        33.96135         1.08243
C         47.81573        36.08148         0.00422
C         46.76961        35.40510         0.82734
C         47.64012        37.50876        -0.40444
C         46.54365        38.21550         0.06383
C         47.65222        40.40338        -0.89824
C         46.45027        39.64910        -0.30284
C         47.67932        41.94499        -0.81107
C         46.47310        42.64836        -0.17720
C         47.44321        45.11331        -0.08027
C         46.61357        43.98451         0.59363
C         47.35407        46.30260         0.58741
C         46.40849        46.56935         1.44152
C         50.28108        28.83751         0.55578
C         48.88123        29.29839         0.49642
C         50.06787        31.45656        -0.45670
C         48.85188        30.80146         0.14897
C         50.17379        32.96517        -0.54506
C         48.99524        33.76400        -0.11334
C         49.95970        35.83743        -1.36423
C         48.82526        35.17547        -0.65420
C         49.89087        37.34807        -1.58164
C         48.79770        38.18474        -0.97243
C         50.17378        40.25353        -1.26457
C         48.87019        39.57452        -1.04675
C         50.14811        41.73894        -1.59786
C         49.02978        42.61310        -1.01548
C         50.47331        44.45812        -1.65020
C         49.15381        43.96640        -1.27154
C         51.24018        29.40340        -0.01931
C         52.39498        31.55668        -1.01061
C         51.40295        30.70046        -0.52667
C         52.47709        32.80741        -1.17729
C         51.19071        33.58735        -1.54020
C         52.18715        35.82217        -2.33071
C         51.33732        35.09481        -1.29361
C         52.18567        37.06199        -2.36218
C         51.11260        38.03616        -2.17674
C         52.43353        40.27663        -2.35237
C         51.33782        39.45196        -1.80335
C         52.57506        41.49053        -2.17336
C         51.89517        42.44607        -1.28857
C         51.51843        43.79497        -1.67805
O         46.65585        42.62362        -1.61280
O         41.46739        26.58469        -0.69695
O         41.40978        29.03797        -0.86859
O         41.06428        41.73280         2.14044
O         48.89451        35.18142        -2.11026
O         39.28758        44.67845         2.59844
O         42.33016        32.51567         2.38103
O         35.55750        37.63419         0.91207
O         45.72489        37.04784         2.17407
O         44.34573        44.84648        -0.11508
O         46.16968        30.68835        -0.73112
O         33.62668        38.01284        -2.32197
O         36.64298        44.30104         1.67443
O         38.53414        30.88369        -1.68381
O         36.36934        42.38611        -1.49131
O         36.70349        30.57395         1.35486
O         34.25411        34.32668        -2.44385
O         38.45684        37.79514        -1.44674
O         37.93726        41.88840         1.96568
O         47.93084        36.05866         1.46840
O         36.20040        39.89865        -1.75857
O         43.46555        39.82724        -1.06217
O         50.17948        33.60500         0.75745
O         46.58652        39.90219        -1.74396
O         34.55150        29.18770         1.72192
O         33.41005        31.81440         1.05535
O         32.02392        42.33111         1.03966
O         47.99475        28.53244        -0.35177
O         36.35832        35.82892        -2.05081
O         40.76936        40.07241        -1.00565
O         43.57921        45.69308         3.63577
O         51.22710        39.74499        -0.36793
O         42.92858        29.31758         2.61728
O         48.20604        44.94879        -1.18661
O         49.98752        37.73102        -3.01328
O         48.96018        30.97319        -1.29585
O         46.11697        33.53209         2.11926
O         42.65067        35.40954        -0.85782
O         38.72093        33.43568        -1.81820
O         31.91372        39.55234         0.41827
O         34.02776        44.08031         1.34693
H         33.17412        43.68092         1.64187
O         37.41710        35.65191         1.41617
H         38.10730        36.05675         1.98268
O         35.55658        44.79440        -1.85271
H         34.81573        45.26964        -2.28428
O         33.74681        42.69580        -2.06346
H         34.60305        42.82572        -2.53325
O         48.13751        31.48250         2.30104
H         47.63700        32.15781         2.81038
O         41.11376        31.53655        -1.55854
H         40.37879        31.57678        -2.21425
O         43.84071        38.63019         2.33064
H         44.24563        37.89119         2.85508
O         50.79727        33.31722        -2.85150
H         51.27566        33.91827        -3.46264
O         47.31886        43.60911         1.79669
H         47.40051        44.39836         2.37533
O         43.62364        35.64724         2.69339
H         44.19767        35.13271         3.29932
O         50.01229        41.76595        -2.99603
H         49.79431        42.67134        -3.30208
O         42.91935        43.36756         2.92563
H         42.18221        43.51656         3.55504
O         51.88019        35.33648        -0.02073
H         52.55284        34.64629         0.17274
O         41.04840        46.00307         4.07227
H         40.08140        45.97425         4.22674
O         52.28469        42.33401         0.01728
H         52.45502        41.38669         0.22101
O         35.20990        30.99432        -1.97933
H         35.91141        31.39902        -2.53464
O         42.04759        27.01468         2.88854
H         42.49986        27.66162         3.48330
O         41.24828        38.17564         2.06800
H         42.11659        38.41002         2.49850
O         46.38462        31.98211        -1.35952
H         47.11674        31.77245        -1.99704
O         44.78787        27.55275         3.69328
H         44.71915        26.67202         4.11726
