         490
 CSIRO Nanostructure Databank - Neutral Graphene Oxide Data Set
C         37.66016        50.22898        -0.21096
C         36.47386        50.87507         0.14249
C         37.70184        52.92523         0.48254
C         36.49999        52.22487         0.50238
C         40.20956        48.74284        -0.25704
C         40.15131        50.20035        -0.64280
C         38.88473        50.90788        -0.20075
C         40.17325        53.01949         0.08270
C         38.91062        52.28968         0.11961
C         40.21042        54.46742         0.20466
C         42.66060        48.78076        -0.27752
C         41.38750        48.08919        -0.17015
C         42.64337        50.21037        -0.21240
C         41.42032        50.91873        -0.23374
C         42.66034        53.08728         0.20762
C         41.38010        52.32528        -0.05243
C         42.63995        54.52245        -0.36494
C         41.33744        55.18783         0.01087
C         45.10551        45.97088        -0.73360
C         43.93509        46.65227        -0.51780
C         45.13186        48.80059        -0.31403
C         43.88944        48.08199        -0.35302
C         45.15579        50.18986        -0.21791
C         43.90623        50.93161        -0.17073
C         45.16737        53.04541        -0.27094
C         43.90291        52.31602        -0.16723
C         45.17104        54.56975        -0.10960
C         43.89359        55.25513         0.10230
C         45.13616        57.23777         0.80205
C         43.92437        56.55271         0.58374
C         47.61784        44.62026        -1.52086
C         47.55872        45.98576        -1.09160
C         46.38116        46.62179        -0.71544
C         47.67747        48.77340        -0.34428
C         46.40177        48.00640        -0.10459
C         47.70071        50.22587        -0.13975
C         46.40559        50.92294        -0.07554
C         47.68626        53.01060         0.31135
C         46.40114        52.29785        -0.02741
C         47.64390        54.51782         0.25731
C         46.43024        55.22555         0.29243
C         47.64842        57.30447         0.78221
C         46.39501        56.61293         0.63289
C         47.69390        58.70487         1.14747
C         50.07959        44.66978        -1.59233
C         48.81892        44.01719        -1.80802
C         50.10975        46.00057        -1.21242
C         48.82286        46.78801        -1.31905
C         50.12670        48.81239        -0.30358
C         48.83344        48.11290        -0.61724
C         50.13083        50.25567        -0.79039
C         48.85623        50.93423        -0.35780
C         50.16262        53.08963        -0.04718
C         48.85998        52.43623        -0.48136
C         50.14978        54.45396         0.27980
C         48.88112        55.19199         0.39324
C         50.13035        57.33185         0.59467
C         48.85350        56.59613         0.60299
C         50.14217        58.81283         0.88883
C         48.84834        59.41146         1.24797
C         52.49152        41.76172        -1.58166
C         51.33958        42.46105        -1.65615
C         52.60783        44.59193        -1.40290
C         51.35692        43.94038        -1.94422
C         52.59991        45.97375        -1.04005
C         51.35604        46.69896        -0.98419
C         52.59023        48.77730        -0.48287
C         51.37650        48.07246        -0.68169
C         52.59191        50.21436        -0.25724
C         51.39555        50.95715        -0.32229
C         52.63330        53.02959         0.21099
C         51.39168        52.35748        -0.06938
C         52.62650        54.44058         0.47607
C         51.39540        55.11726         0.51719
C         52.66425        57.30596         0.97040
C         51.37329        56.54883         0.87118
C         52.62236        58.78644         0.94972
C         51.43965        59.45938         1.23010
C         52.66494        61.30630         2.25610
C         51.48275        60.73079         1.89263
C         55.01364        40.26158        -1.81157
C         54.98960        41.68167        -1.60699
C         53.78610        42.41955        -1.57972
C         55.05698        44.49508        -1.10932
C         53.80395        43.84712        -1.39912
C         55.05715        45.90729        -0.72021
C         53.80157        46.63187        -0.66968
C         55.01372        48.72453        -0.07000
C         53.80540        48.04110        -0.41010
C         55.04736        50.11589         0.06624
C         53.83356        50.88791        -0.00626
C         55.11501        52.98664         0.42401
C         53.85426        52.29630         0.20582
C         55.11946        54.44132         0.58146
C         53.89104        55.15893         0.63211
C         55.15002        57.29053         0.69120
C         53.93049        56.57573         0.75079
C         55.14450        58.79504         0.43741
C         53.88064        59.52326         0.89009
C         55.22489        61.35647         2.15193
C         53.91821        60.86653         1.64514
C         55.25643        62.50442         2.96125
C         57.45771        40.20302        -1.61198
C         56.18526        39.55796        -1.78775
C         57.46945        41.62439        -1.43412
C         56.24907        42.34794        -1.39371
C         57.47340        44.38483        -0.53317
C         56.23183        43.74678        -1.09273
C         57.52415        45.87444        -0.84672
C         56.23904        46.55468        -0.42264
C         57.50552        48.62890         0.37128
C         56.18880        47.86457         0.34590
C         57.50501        50.10773         0.30244
C         56.31611        50.81626         0.26199
C         57.59408        52.93541         0.66110
C         56.30361        52.25727         0.41507
C         57.61288        54.43929         0.72199
C         56.33710        55.17222         0.61409
C         57.66224        57.31454         0.22526
C         56.36386        56.58579         0.59705
C         57.72705        58.77060         0.71547
C         56.43806        59.52884         0.88534
C         57.66725        61.24673         2.25301
C         56.43145        60.70798         1.80486
C         57.68296        62.47147         2.98307
C         56.46225        63.06339         3.35403
C         59.83146        37.34455        -1.11234
C         58.67664        38.04403        -1.39975
C         59.98516        40.15688        -1.77349
C         58.66353        39.45442        -1.56155
C         59.96974        41.60661        -1.33167
C         58.74443        42.30988        -1.22725
C         59.97506        44.37111        -0.68929
C         58.76068        43.68248        -0.89214
C         59.94770        45.79069        -0.29928
C         58.77333        46.47052        -0.27529
C         59.92907        48.62702        -0.60417
C         58.77937        47.91029         0.07576
C         59.92941        50.14090        -0.43287
C         58.86210        50.75997         0.46057
C         60.06091        52.94685         0.24378
C         58.85160        52.25410         0.32700
C         60.09469        54.38451         0.39690
C         58.89760        55.13063         0.50236
C         60.15248        57.18329         0.79560
C         58.92230        56.53709         0.55788
C         60.16347        58.56575         1.25743
C         58.95587        59.29096         1.36365
C         60.15475        61.14680         2.39166
C         58.93381        60.56642         1.98139
C         60.21932        62.38968         3.25113
C         58.93359        63.16693         3.25274
C         60.19462        65.25368         3.45724
C         58.97580        64.51482         3.50903
C         62.09611        36.18792         0.39666
C         62.27755        37.34447        -0.40288
C         61.08630        38.03066        -0.94591
C         62.46642        40.04353        -1.03589
C         61.16038        39.37178        -1.23656
C         62.46473        41.53295        -0.98440
C         61.17962        42.28291        -1.08782
C         62.47796        44.34443        -0.39879
C         61.19095        43.66025        -0.79982
C         62.39308        45.85932        -0.64963
C         61.23022        46.50854         0.09597
C         62.45288        48.66828        -0.49243
C         61.24727        47.98192        -0.27149
C         62.46735        50.07229        -0.64546
C         61.23057        50.86333        -0.53063
C         62.50452        52.97301        -0.15321
C         61.29902        52.27504        -0.08599
C         62.57264        54.36212         0.17442
C         61.34999        55.06115         0.39825
C         62.63479        57.07130         0.97178
C         61.36900        56.45118         0.70728
C         62.60393        58.32053         1.75129
C         61.36866        59.13358         1.72440
C         62.62579        61.11036         2.57476
C         61.36940        60.46385         2.19371
C         62.64770        62.57095         2.71372
C         61.45628        63.22140         2.94727
C         62.48181        65.45914         2.50184
C         61.38192        64.66828         3.05696
C         62.34510        66.84077         2.24775
C         64.48456        35.96372         0.75358
C         63.15777        35.54596         1.00812
C         64.67336        37.06565        -0.13015
C         63.57629        37.84616        -0.61855
C         64.96671        40.01648        -0.94932
C         63.71894        39.21504        -1.34594
C         64.98785        41.49788        -0.91926
C         63.75294        42.27500        -1.18501
C         64.95204        44.37360        -0.38716
C         63.74968        43.79834        -1.08603
C         64.89212        45.78738         0.11620
C         63.69888        46.56168        -0.35730
C         65.00247        48.62418        -0.52788
C         63.73744        47.93546        -0.44617
C         65.03402        50.03937        -1.08765
C         63.70923        50.80553        -0.92839
C         65.01861        53.06646        -0.70465
C         63.70960        52.30848        -0.71653
C         65.02759        54.44978        -0.17739
C         63.83921        55.06705         0.21739
C         65.11940        57.08020         1.05580
C         63.84381        56.42935         0.73910
C         65.18856        58.42423         1.67001
C         63.89577        58.93593         2.22698
C         65.49124        61.45462         2.27116
C         63.73446        60.31700         2.73236
C         65.11314        62.74153         1.91670
C         63.93406        63.41986         2.60120
C         64.42978        65.40897         1.02646
C         63.61227        64.77939         1.99547
C         64.31600        66.82270         0.82052
C         63.30009        67.51887         1.50223
C         66.63349        33.42696         2.52249
C         65.51843        34.09476         2.04782
C         66.96289        35.83431         1.14079
C         65.64975        35.29819         1.31669
C         67.13482        36.97349         0.28279
C         66.03770        37.35663        -0.45152
C         67.40900        40.00344        -0.41216
C         66.20297        39.45644        -1.02169
C         67.36235        41.45412        -0.19415
C         66.20960        42.16150        -0.43075
C         67.38417        44.31645         0.16367
C         66.07618        43.55048         0.14915
C         67.38178        45.77538         0.09740
C         66.20869        46.50509        -0.06466
C         67.49915        48.59110        -0.39185
C         66.21772        47.92382        -0.34285
C         67.57863        50.06057        -0.77658
C         66.24320        50.78590        -0.44368
C         67.61255        52.96078        -0.48837
C         66.30392        52.27323        -0.77720
C         67.59753        54.43644        -0.19321
C         66.30290        55.27713        -0.25749
C         67.55746        57.07147         1.22655
C         66.28884        56.44276         0.71060
C         67.57492        58.56302         0.99816
C         66.35816        59.19748         1.48203
C         67.31880        61.34498         0.71801
C         66.41868        60.65873         1.55742
C         66.97436        62.65461         0.29517
C         65.85042        63.33532         0.86472
C         65.99214        64.96085        -0.87904
C         65.43606        64.60032         0.33952
C         65.89341        67.07162        -1.11330
C         65.30365        67.60173         0.04698
C         66.81289        69.48301        -0.28193
C         65.80322        68.85743         0.45114
C         69.01699        31.68569         2.93567
C         69.10771        33.14665         2.79966
C         67.93758        33.92648         2.31320
C         69.44147        35.73908         1.43141
C         68.11227        35.15216         1.64128
C         69.58282        37.02514         0.84993
C         68.47358        37.65991         0.02440
C         69.58948        39.93236         0.67006
C         68.40353        39.21419         0.13626
C         69.68824        41.41122         0.53556
C         68.56196        42.14866         0.26780
C         69.78638        44.32909         0.80506
C         68.54625        43.60519         0.33361
C         69.83703        45.75060         0.30166
C         68.65784        46.46303         0.09130
C         69.95178        48.59058        -0.00338
C         68.67981        47.89139        -0.14629
C         69.98775        50.00827         0.06113
C         68.77964        50.77647        -0.17325
C         70.10585        52.90132         0.00519
C         68.79792        52.14561        -0.11384
C         69.94541        54.24975         0.65629
C         68.79248        54.98772         0.50475
C         70.01525        57.10293         0.77829
C         68.79956        56.38195         0.81581
C         69.98787        58.51851         0.49217
C         68.72197        59.23900         0.57137
C         69.39727        61.43268        -0.69916
C         68.70669        60.77749         0.49060
C         68.85854        62.60127        -1.32943
C         67.69949        63.24965        -0.79787
C         67.99595        65.17814        -2.35514
C         67.23397        64.45907        -1.37108
C         67.76760        66.67253        -2.75687
C         67.06366        67.53912        -1.71145
C         68.44873        69.53571        -2.21398
C         67.47182        68.84542        -1.35946
C         68.57212        70.93658        -2.19939
C         71.44443        31.46974         2.80334
C         70.13498        30.91887         3.03299
C         71.61552        32.77983         2.48401
C         70.49873        33.73195         2.56004
C         71.86029        35.66407         1.77334
C         70.60102        35.06098         1.89521
C         71.97192        36.98040         1.33633
C         70.83645        37.67047         0.88866
C         72.12721        39.89735         0.58111
C         70.87303        39.16049         0.84541
C         72.17621        41.23915         0.59305
C         70.98039        42.07196         1.00342
C         72.21573        44.19078         0.31068
C         71.05046        43.53287         0.59165
C         72.26612        45.60975         0.16875
C         71.11373        46.39516         0.20409
C         72.36196        48.53009         0.44425
C         71.14838        47.84467         0.17322
C         72.38574        49.89426         0.60436
C         71.20910        50.67906         0.41200
C         72.37120        52.79096         1.07525
C         71.23725        52.08827         0.56530
C         72.34228        54.11397         1.40285
C         71.07799        54.91861         1.40084
C         72.44611        57.00477         0.79699
C         71.22459        56.35507         0.91673
C         72.45870        58.34855         0.41350
C         71.27091        59.07373         0.21077
C         71.35640        61.67343        -2.16843
C         70.70204        61.09037        -1.05362
C         70.75003        62.68156        -2.88373
C         69.52084        63.22918        -2.43013
C         69.79234        65.14902        -4.04041
C         69.07547        64.50617        -2.93232
C         69.81640        66.48872        -4.13920
C         69.16979        67.27141        -3.02014
C         70.04134        69.44925        -4.04609
C         69.18624        68.78202        -3.15999
C         70.15045        70.84228        -4.02463
C         69.42009        71.58545        -3.09579
O         66.27886        38.16717        -1.57660
O         62.52470        40.73114         0.26476
O         63.46261        51.74273        -2.05019
O         70.08147        39.58255         2.03757
O         65.72011        52.78594        -1.98896
O         60.21277        50.78771        -1.69716
O         69.85352        33.80497         3.87781
O         58.43420        48.16231         1.46403
O         65.32569        65.90876        -1.66945
O         63.14592        58.01870         3.11304
O         51.95164        56.81364         2.19476
O         57.65208        53.63559         1.97191
O         64.85545        60.86085         3.37801
O         45.28439        53.94043        -1.46962
O         67.95572        53.94757        -1.53715
O         64.55278        41.89094        -2.34911
O         57.28532        59.74855        -0.29112
O         53.80701        60.79955         0.17884
O         50.20887        58.29270        -0.50343
O         71.54568        60.32227        -0.27831
O         61.40492        46.38698         1.53580
H         60.68295        46.89550         1.96637
O         50.15337        50.28308        -2.23802
H         49.74317        51.13080        -2.52782
O         67.82983        50.12958        -2.19725
H         66.98917        49.87614        -2.65914
O         66.28357        55.88974        -1.58399
H         66.51964        55.17286        -2.21910
O         65.77009        43.28987         1.57478
H         65.57749        44.17729         1.97586
O         63.74202        38.96573        -2.76495
H         64.60339        38.54236        -2.97196
O         68.87460        37.40013        -1.35286
H         68.10013        37.62475        -1.92046
O         60.18095        40.21484        -3.23988
H         60.27607        39.29193        -3.55851
O         62.03609        46.10973        -2.02742
H         62.69808        45.66034        -2.60511
O         51.44406        44.06087        -3.41636
H         52.29152        43.64807        -3.68947
O         60.37210        61.90046         4.63053
H         61.23944        61.44418         4.68320
O         67.54296        56.87942         2.70787
H         66.72930        57.31800         3.04401
O         50.17577        48.91742         1.15835
H         50.16902        48.01019         1.52916
O         55.10936        58.85806        -1.01516
H         54.92148        59.79560        -1.24983
O         69.46455        61.22083         1.66520
H         69.02782        60.85206         2.46209
O         42.66868        54.48099        -1.80826
H         43.59592        54.25908        -2.07713
O         57.62834        46.05583        -2.28976
H         58.26754        46.78678        -2.46335
O         62.65049        44.08603         1.01957
H         61.88189        44.48649         1.49094
O         48.70365        52.73178        -1.89942
H         48.58526        53.70114        -1.99882
O         66.05834        50.76106         0.99217
H         66.10676        49.82855         1.29715
O         57.63102        57.34995        -1.22619
H         56.97911        58.05441        -1.46906
O         55.89140        47.47966         1.72501
H         56.75901        47.27513         2.14521
O         47.97970        52.68800         1.70725
H         47.30233        53.11690         2.27042
O         69.63320        44.45452         2.26574
H         69.97937        43.61390         2.66214
O         59.66836        48.34044        -2.01768
H         60.09564        49.07664        -2.52290
O         46.42299        47.75472         1.35535
H         46.52685        48.62471         1.79735
O         69.92127        67.00480        -1.79718
H         70.81822        67.38318        -1.90646
O         70.53000        53.18580        -1.38115
H         69.73250        53.55170        -1.84103
O         70.68267        55.01409         2.81284
H         69.86862        55.56501         2.85114
O         65.24026        49.91686        -2.51612
H         64.85324        50.73468        -2.91789
O         42.75627        53.25396         1.66518
H         42.60537        52.37625         2.07549
O         64.34358        63.69119         3.97659
H         64.58969        62.82574         4.37228
O         64.70471        45.73087         1.60233
H         63.84076        45.25367         1.72839
O         40.12079        50.23231        -2.11449
H         40.96901        49.85536        -2.43155
O         70.94779        42.07847         2.47153
H         70.67631        41.16064         2.73716
O         59.34205        50.51048         1.82233
H         58.68055        50.88125         2.44464
O         48.75569        47.15927        -2.75001
H         48.97450        46.35681        -3.27133
O         66.99886        66.71002        -3.97248
H         66.10215        66.37240        -3.75771
O         63.77772        44.27507        -2.46484
H         64.29828        43.60328        -2.97146
O         57.36049        44.28493         0.92357
H         57.25689        43.33716         1.15156
H         37.61661        49.17307        -0.51098
H         35.52417        50.32267         0.13330
H         37.69628        53.98794         0.75886
H         35.57152        52.73833         0.78818
H         39.27414        48.17438        -0.15643
H         39.27150        55.00469         0.39941
H         41.38519        47.00896         0.03330
H         41.27814        56.28617         0.00072
H         45.04892        44.89827        -0.96752
H         42.99197        46.09090        -0.55963
H         45.08246        58.29182         1.10308
H         42.98616        57.10028         0.75034
H         46.69621        44.02657        -1.59880
H         46.75099        59.21047         1.39681
H         48.81184        42.97804        -2.16378
H         48.81389        60.45157         1.60086
H         52.44949        40.67061        -1.45524
H         50.38076        41.92491        -1.62466
H         52.66037        62.13870         2.97159
H         50.54490        61.15429         2.27798
H         54.07533        39.72252        -1.99944
H         54.32430        63.00688         3.24808
H         56.15087        38.47350        -1.95904
H         56.45187        63.97896         3.95933
H         59.77830        36.25835        -0.95900
H         57.72773        37.48879        -1.41361
H         60.13135        66.34237         3.58934
H         58.04632        65.09398         3.60829
H         61.07636        35.83047         0.59526
H         61.49217        67.39944         2.65598
H         62.95537        34.70392         1.68317
H         63.21058        68.60609         1.36769
H         66.49345        32.49170         3.08091
H         64.52536        33.66174         2.22633
H         67.14141        70.48333         0.03251
H         65.39737        69.35045         1.34581
H         68.02774        31.20597         2.93890
H         67.98891        71.53332        -1.48443
H         72.30143        30.78194         2.77279
H         70.04344        29.83210         3.17094
H         72.59881        33.13117         2.13968
H         72.75900        35.14077         2.12619
H         72.94654        37.48583         1.37590
H         73.01844        39.31572         0.30150
H         73.13235        41.73584         0.37566
H         73.16795        43.64638         0.23312
H         73.25135        46.07255         0.02374
H         73.29024        47.96106         0.58677
H         73.33804        50.38262         0.84737
H         73.30611        52.23862         1.25155
H         73.23995        54.57182         1.84350
H         73.39449        56.47192         0.94654
H         73.41182        58.86054         0.22796
H         72.36284        61.32308        -2.43231
H         71.27515        63.12665        -3.73884
H         70.27620        64.52143        -4.80328
H         70.31836        66.98065        -4.98378
H         70.63800        68.88590        -4.77687
H         70.81866        71.34868        -4.73484
H         69.50660        72.68064        -3.07464
