         424
 CSIRO Nanostructure Databank - Neutral Graphene Oxide Data Set
C          1.20671         1.97098        -0.85112
C          1.17066         3.37017        -0.87110
C          2.38540         1.29893        -0.55861
C          2.32314         4.12715        -0.57169
C          1.07308         6.31162        -0.57741
C          1.06131         7.70434        -0.59149
C          2.28665         5.60298        -0.54462
C          2.24754         8.44311        -0.47211
C          1.08396        10.69449         0.03572
C          1.06150        12.03691         0.05766
C          2.17348         9.94874        -0.70678
C          2.21281        12.82959        -0.54432
C          1.07846        15.05913        -0.12029
C          1.10568        16.43934         0.05781
C          2.26450        14.31047        -0.20220
C          2.33206        17.12932         0.12617
C          2.38014        18.55732         0.27890
C          3.57409         2.02846        -0.28763
C          3.52446         3.45165        -0.28434
C          4.80698         1.35093        -0.07406
C          4.74770         4.23902         0.12287
C          3.49262         6.33689        -0.45070
C          3.47445         7.74225        -0.38286
C          4.79660         5.57968        -0.60757
C          4.72620         8.46702         0.06062
C          3.52199        10.66741        -0.56008
C          3.47647        12.10265        -0.04173
C          4.78757         9.91202        -0.36088
C          4.76460        12.84512        -0.22640
C          3.51034        14.97490        -0.13187
C          3.55158        16.39354         0.02737
C          4.77170        14.24558        -0.19991
C          4.79936        17.09046         0.07511
C          3.57252        19.22319         0.31549
C          4.82079        18.51478         0.20934
C          6.04178         2.04989        -0.01617
C          6.04652         3.48177        -0.04290
C          7.27300         1.35607         0.01036
C          7.25815         4.18794        -0.09218
C          6.04822         6.35256        -0.24531
C          6.03924         7.75160        -0.16171
C          7.26363         5.64142        -0.14086
C          7.24973         8.47986        -0.04618
C          6.03394        10.62638         0.01300
C          5.98571        12.08966         0.10555
C          7.23502         9.93670         0.05438
C          7.28816        12.83016         0.12568
C          6.00711        14.96900        -0.17732
C          6.03226        16.37013        -0.03741
C          7.28737        14.22347        -0.45613
C          7.28458        17.08461         0.01270
C          6.04469        19.20022         0.23273
C          7.28265        18.51129         0.14579
C          8.50382         2.04981         0.01515
C          8.50051         3.48669        -0.03967
C          9.73845         1.35860         0.07213
C          9.73404         4.20276        -0.00713
C          8.49366         6.35290        -0.06210
C          8.48991         7.78131        -0.04448
C          9.73343         5.63868        -0.01468
C          9.73654         8.49480         0.00413
C          8.50514        10.65079         0.08088
C          8.53615        12.05873         0.02936
C          9.73464         9.93143         0.03495
C          9.75909        12.78070         0.00187
C          8.55279        14.95828        -0.09603
C          8.52614        16.38770        -0.01096
C          9.74589        14.24940         0.00855
C          9.75421        17.10157         0.08044
C          8.51509        19.21085         0.20659
C          9.74201        18.53213         0.17036
C         10.96683         2.05164         0.09768
C         10.96269         3.49364         0.06357
C         12.19944         1.36051         0.17205
C         12.19841         4.20461         0.11228
C         10.96191         6.35107         0.02059
C         10.96393         7.78937         0.01549
C         12.19339         5.63268         0.08030
C         12.21264         8.50434        -0.00016
C         10.96654        10.64768         0.04603
C         10.96455        12.07178         0.06904
C         12.21379         9.93723        -0.01297
C         12.24302        12.79457         0.39617
C         10.99660        14.96411         0.06487
C         10.99508        16.39985         0.05706
C         12.22087        14.26863         0.06976
C         12.22482        17.11785         0.07487
C         10.99579        19.22162         0.25139
C         12.19905        18.54881         0.20262
C         13.43429         2.04805         0.22189
C         13.43154         3.49142         0.19032
C         14.65997         1.34941         0.30976
C         14.66077         4.20296         0.26067
C         13.43276         6.34360         0.14524
C         13.43963         7.78377         0.04536
C         14.63935         5.62566         0.26448
C         14.69000         8.47913        -0.07294
C         13.43502        10.66904        -0.15602
C         13.47060        12.05939        -0.07190
C         14.67645         9.91173        -0.56248
C         14.67962        12.80940        -0.24758
C         13.44308        14.96936        -0.06996
C         13.46520        16.41228        -0.05689
C         14.65219        14.21993        -0.24545
C         14.69313        17.13736        -0.14543
C         13.47954        19.33114         0.39855
C         14.73267        18.58601        -0.01017
C         15.90174         2.03361         0.35204
C         15.90129         3.46740         0.32375
C         17.14204         1.34268         0.38028
C         17.14716         4.14937         0.32361
C         15.90983         6.37964         0.55647
C         15.89759         7.81005         0.06789
C         17.12057         5.61347         0.07655
C         17.15711         8.50798        -0.02077
C         15.94437        10.65865        -0.23080
C         15.94239        12.07945        -0.26274
C         17.15099         9.95318        -0.08392
C         17.16479        12.77143        -0.16027
C         15.88729        14.97715        -0.48611
C         15.92637        16.44712        -0.30845
C         17.18513        14.22129        -0.40579
C         17.15158        17.13373        -0.37900
C         15.89733        19.27495        -0.18266
C         17.15562        18.60919        -0.68066
C         18.37625         2.03051         0.39280
C         18.35780         3.46685         0.37340
C         19.62904         1.34798         0.37128
C         19.65403         4.21196         0.57656
C         18.40351         6.35607        -0.07399
C         18.38090         7.82482         0.02963
C         19.67121         5.64063         0.09200
C         19.62743         8.51426         0.08672
C         18.38984        10.65305         0.03261
C         18.39436        12.07857         0.01557
C         19.62189         9.94538         0.11266
C         19.63354        12.77544         0.12141
C         18.37777        15.00218         0.01112
C         18.40856        16.45687        -0.28470
C         19.64590        14.24304         0.23637
C         19.61553        17.14202        -0.23301
C         18.44723        19.29204        -0.31710
C         19.63897        18.59717        -0.21638
C         20.86303         2.04397         0.23319
C         20.86712         3.44491         0.16663
C         22.13150         1.34040         0.15772
C         22.15480         4.17658        -0.12611
C         20.86571         6.35488         0.12443
C         20.85509         7.80291         0.12471
C         22.12621         5.66025         0.18234
C         22.08962         8.50718         0.23705
C         20.85147        10.65045         0.16390
C         20.85184        12.08204         0.17907
C         22.08069         9.93698         0.23109
C         22.09984        12.79961         0.22871
C         20.91593        14.95505         0.08872
C         20.93744        16.41498        -0.31771
C         22.09753        14.24967         0.16127
C         22.06266        17.12229         0.43529
C         20.91226        19.27560        -0.06954
C         22.11622        18.60641         0.13996
C         23.33993         2.01053         0.29432
C         23.30401         3.49471         0.60950
C         24.59327         1.35170         0.25969
C         24.61142         4.22225         0.38673
C         23.32414         6.35627         0.30951
C         23.32235         7.79876         0.35345
C         24.60032         5.64488         0.34403
C         24.54284         8.52021         0.47359
C         23.30671        10.65454         0.30469
C         23.30768        12.09652         0.25779
C         24.51385         9.93567         0.45190
C         24.56703        12.81078         0.13118
C         23.36678        14.95445         0.10301
C         23.37756        16.40788         0.21292
C         24.54559        14.24360        -0.02942
C         24.55842        17.09403         0.33592
C         23.37334        19.25958         0.20610
C         24.59484        18.54733         0.34295
C         25.81569         2.05386         0.32863
C         25.81760         3.50991         0.36950
C         27.05341         1.37238         0.29014
C         27.06163         4.21695         0.33960
C         25.81416         6.36294         0.34236
C         25.81645         7.81329         0.45522
C         27.06527         5.65350         0.33195
C         27.02097         8.50263         0.48963
C         25.74613        10.70245         0.67383
C         25.76441        12.12065         0.27644
C         27.05508         9.94470         0.74200
C         27.06205        12.76268         0.01864
C         25.79862        15.04292        -0.34555
C         25.83265        16.29705         0.52692
C         27.09224        14.24844        -0.25474
C         27.10217        17.07741         0.35180
C         25.84997        19.19576         0.35603
C         27.09270        18.49220         0.35256
C         28.28090         2.06257         0.29005
C         28.28710         3.50173         0.31597
C         29.52606         1.36318         0.28253
C         29.53161         4.20219         0.32483
C         28.29467         6.35047         0.29953
C         28.29568         7.83679         0.04430
C         29.53364         5.65643         0.33061
C         29.56621         8.52834         0.47346
C         28.31937        10.70969         0.59082
C         28.31536        12.05019         0.39487
C         29.58459         9.96419         0.93985
C         29.56716        12.86603         0.66408
C         28.34039        14.98342         0.02266
C         28.32405        16.33736         0.30506
C         29.61167        14.18770        -0.13265
C         29.58139        17.06791         0.70616
C         28.34874        19.19372         0.25446
C         29.57351        18.53435         0.32929
C         30.73455         2.04311         0.27321
C         30.73237         3.46800         0.27567
C         32.04560         1.29430         0.45576
C         32.02336         4.18047         0.32758
C         30.74655         6.38754         0.33080
C         30.76252         7.82826         0.39503
C         32.02405         5.68029         0.38954
C         32.03931         8.53682         0.39234
C         30.83827        10.69726         0.51849
C         30.84077        12.07983         0.42320
C         32.05498         9.95548         0.37210
C         32.06322        12.79769         0.22944
C         30.85845        14.95888         0.20847
C         30.85266        16.34503         0.34126
C         32.07572        14.23152         0.20046
C         32.07608        17.06319         0.33835
C         30.82161        19.20097         0.25409
C         32.05771        18.51623         0.30937
C         33.22959         1.99669        -0.20679
C         33.20361         3.48842        -0.28409
C         34.55054         1.33725        -0.24249
C         34.48537         4.27809        -0.56627
C         33.27683         6.41154         0.11429
C         33.26734         7.82704         0.21862
C         34.47951         5.70805        -0.05847
C         34.50148         8.53743         0.08376
C         33.28512        10.66746         0.19864
C         33.29163        12.08895         0.15923
C         34.51416         9.95874         0.07926
C         34.53869        12.79819         0.07897
C         33.31368        14.93424         0.22341
C         33.30336        16.35991         0.25934
C         34.54579        14.22111         0.15763
C         34.55105        17.06704         0.27729
C         33.29571        19.20022         0.23829
C         34.52953        18.52222         0.23860
C         35.73331         2.05297        -0.26141
C         35.75200         3.50984        -0.23562
C         37.00325         1.36529        -0.20128
C         36.94257         4.19063        -0.13381
C         35.70294         6.40494        -0.03556
C         35.72713         7.81721        -0.00070
C         36.98088         5.65632         0.21385
C         36.96819         8.53564        -0.17244
C         35.74614        10.66367        -0.08783
C         35.76135        12.08661        -0.05245
C         36.95829         9.92424        -0.26608
C         37.01771        12.81114        -0.09914
C         35.78690        14.93656         0.18917
C         35.75709        16.36340         0.28732
C         37.01917        14.23461         0.06943
C         37.03487        17.10580         0.57735
C         35.75660        19.21244         0.08308
C         36.99641        18.54920         0.11875
C         38.19700         2.04720        -0.20603
C         38.20697         3.49877        -0.21155
C         39.48002         1.35939        -0.12098
C         39.40003         4.20309        -0.34279
C         38.21886         6.39031        -0.23355
C         38.21528         7.78442        -0.30745
C         39.43685         5.64942        -0.33652
C         39.45666         8.49654        -0.44680
C         38.17569        10.66747        -0.75215
C         38.22163        12.11597        -0.31584
C         39.46670         9.91835        -0.53180
C         39.46738        12.81700        -0.39307
C         38.27091        14.96909         0.01428
C         38.27117        16.35326         0.15630
C         39.50415        14.23965        -0.24901
C         39.52495        17.12780         0.13367
C         38.18852        19.22223        -0.15660
C         39.45443        18.57333        -0.16555
C         40.64035         2.01807        -0.30165
C         40.65659         3.45971        -0.73296
C         41.89985         4.20876        -0.33384
C         40.67298         6.33449        -0.37703
C         40.68781         7.76997        -0.42534
C         41.89755         5.55776        -0.25812
C         41.90028         8.51107        -0.47663
C         40.67757        10.62229        -0.58173
C         40.67946        12.08989        -0.62207
C         41.89503         9.88761        -0.53700
C         41.86666        12.80524        -0.82540
C         40.73891        14.92345        -0.40989
C         40.82419        16.38961        -0.18591
C         41.89215        14.19710        -0.73883
C         41.91274        17.19199        -0.76048
C         40.61824        19.25205        -0.51663
C         41.82362        18.55683        -0.81735
O         17.57380         5.91361        -1.27437
O         32.81128         2.68407        -1.45145
O          6.58823        12.63907         1.38459
O         26.36547        10.37956         1.97710
O         32.24340         4.82141         1.62399
O         40.47534        16.76713         1.19423
O         18.79380        14.71593         1.38438
O         27.17001        13.30007        -1.38991
O         16.63710        14.58029        -1.71195
O          4.36551        10.33475        -1.71385
O         29.62145         9.93473         2.41607
H         30.35259         9.33605         2.68030
O         21.75574        16.98327         1.85001
H         22.49365        17.37496         2.36181
O          4.61886         4.55244         1.54657
H          4.56374         3.70334         2.03367
O         29.55389        17.06304         2.18015
H         30.37966        17.49402         2.48785
O         37.09576         5.64416         1.69483
H         37.16216         6.57735         1.99094
O         19.79439         4.32539         2.05863
H         20.75780         4.31487         2.26514
O          4.91618         5.26116        -2.02322
H          4.95292         6.10223        -2.52445
O          1.82409        10.06520        -2.12859
H          2.64457         9.83768        -2.62602
O          4.59522         8.55922         1.52258
H          4.59098         7.64436         1.87841
O         37.12068        17.18765         2.05033
H         37.33495        16.29062         2.38404
O         25.68637        15.48623        -1.71726
H         25.90144        14.71442        -2.28635
O         29.51903        13.21004         2.07122
H         29.45927        12.37112         2.58010
O         12.33010        12.75160         1.87826
H         11.51947        13.17944         2.22909
O         25.84072        15.82798         1.91168
H         26.21453        16.53680         2.47627
O         16.04453         6.43246         2.01586
H         15.25225         6.88476         2.37477
O          3.31409        11.99304         1.40741
H          4.18710        11.78601         1.80646
O         40.66840         3.43168        -2.21007
H         40.64180         4.36372        -2.51506
O         28.28894         7.97058        -1.44533
H         27.58462         7.37724        -1.78554
O         22.42205         4.04694        -1.55335
H         21.67280         4.45066        -2.03940
O         34.55111         4.45875        -2.01522
H         34.08689         3.68246        -2.41210
O         14.62458         9.83358        -2.03327
H         15.40846         9.32201        -2.32697
O          7.33891        14.01240        -1.90986
H          7.33364        14.89291        -2.34114
O         17.07841        18.70734        -2.16838
H         16.33237        18.13562        -2.45225
O         22.98592         3.62569         2.03068
H         23.70312         3.19432         2.54142
O         13.58211        19.69350         1.79326
H         13.65961        18.86836         2.31496
O         21.31414        16.45024        -1.72839
H         20.53602        16.19378        -2.26623
O         32.30358         1.17064         1.86538
H         32.24326         2.06107         2.27111
O          2.14524        12.77503        -1.98265
H          1.92119        11.84361        -2.24345
O         38.00877        10.72840        -2.22348
H         38.78878        11.20299        -2.58270
O         29.76942        13.84743        -1.53556
H         28.89598        13.50480        -1.85300
H          0.29353         1.40309        -1.07812
H          0.22789         3.87213        -1.12669
H          2.41586         0.20005        -0.55824
H          0.11651         5.77410        -0.62633
H          0.10369         8.23454        -0.68953
H          0.26638        10.11585         0.49222
H          0.23768        12.56045         0.56701
H          0.10840        14.54954        -0.20775
H          0.16432        17.00380         0.12451
H          1.43241        19.10961         0.36005
H          4.81661         0.25103        -0.07229
H          3.59706        20.31713         0.42601
H          7.27240         0.25632         0.02655
H          6.04874        20.29569         0.33513
H          9.73789         0.25910         0.10774
H          8.50435        20.30709         0.29873
H         12.19535         0.26062         0.20106
H         10.99029        20.31618         0.36329
H         14.64950         0.24947         0.33126
H         13.41702        20.29631        -0.16676
H         17.13909         0.24227         0.37816
H         15.89464        20.37177        -0.08401
H         19.63749         0.24851         0.40959
H         18.45260        20.39219        -0.27328
H         22.12402         0.24566         0.04153
H         20.91932        20.37319        -0.16623
H         24.61697         0.25889         0.12739
H         23.41098        20.35403         0.08637
H         27.05641         0.27266         0.25424
H         25.87533        20.29552         0.31649
H         29.51723         0.26334         0.31328
H         28.32932        20.28528         0.11057
H         31.95345         0.25485         0.05136
H         30.83116        20.29421         0.12105
H         34.58456         0.23924        -0.17638
H         33.29301        20.29913         0.17559
H         36.99993         0.26520        -0.16817
H         35.73678        20.29488        -0.11811
H         39.47530         0.28451         0.11623
H         38.14880        20.29251        -0.41384
H         41.60217         1.48739        -0.23444
H         42.84100         3.64869        -0.22661
H         42.84018         6.08488        -0.05259
H         42.86541         7.98743        -0.46531
H         42.85712        10.41642        -0.55386
H         42.80501        12.27838        -1.04230
H         42.84894        14.71729        -0.87942
H         42.80843        16.69044        -1.15283
H         40.57525        20.33727        -0.68874
H         42.67554        19.13617        -1.20168
