         272
 CSIRO Nanostructure Databank - Neutral Graphene Oxide Data Set
C        -11.12435         0.74390        -0.51393
C         -9.84918         1.41266        -0.85877
C         -8.59653         0.64436        -0.54030
C         -7.26183         1.38211        -0.48630
C         -6.27477         0.84021         0.55435
C         -4.88024         1.34938         0.14367
C         -3.65998         0.63611         0.66988
C         -2.33978         1.35862         0.84672
C         -1.18613         0.69441         1.58516
C          0.15218         1.47473         1.68254
C          1.29762         0.73373         0.99371
C          2.66579         1.35811         1.26306
C          3.72736         0.78042         0.32458
C          4.97067         1.55240         0.02068
C          6.22740         0.73346         0.00978
C          7.51673         1.41176         0.25515
C          8.78173         0.60476         0.31145
C         10.07376         1.31693         0.49441
C         11.30640         0.48140         0.38533
C         -9.72190         2.86283        -1.11470
C         -8.50833         3.54335        -1.06810
C         -7.32835         2.92547        -0.33400
C         -5.95039         3.46972        -0.62290
C         -4.82594         2.80602        -0.20187
C         -3.43916         3.44215        -0.35169
C         -2.27214         2.80701         0.46095
C         -1.26090         3.59687         1.31753
C          0.11731         2.93618         1.22304
C          1.29495         3.61076         1.12642
C          2.61923         2.89969         1.24802
C          3.89120         3.64477         0.96487
C          5.13625         2.94322         0.52356
C          6.32966         3.59703         0.44139
C          7.58128         2.90664        -0.09986
C          8.91102         3.54003         0.29774
C         10.04599         2.81034         0.43767
C         -8.42860         4.93061        -1.35866
C         -7.27596         5.69403        -1.02544
C         -6.12515         4.94311        -0.37873
C         -4.82439         5.69462        -0.39884
C         -3.52386         4.97270        -0.23272
C         -2.59494         5.73750         0.69904
C         -1.25172         5.10099         1.04848
C          0.03930         5.84680         0.97765
C          1.36737         5.13331         1.24238
C          2.53585         5.80017         0.51354
C          3.84275         5.08348         0.54103
C          5.12712         5.83037         0.74338
C          6.41692         5.05856         0.70282
C          7.65185         5.79644         0.31053
C          8.98869         5.05603         0.18460
C         -7.30900         7.08398        -0.97590
C         -6.12951         7.91228        -0.62281
C         -4.87556         7.19214        -0.25558
C         -3.68612         7.91204         0.25470
C         -2.52263         7.21660         0.36933
C         -1.24136         7.86251         0.00954
C          0.05892         7.13980         0.21088
C          1.31583         7.92173         0.12463
C          2.52664         7.27715         0.36044
C          3.79507         8.03586         0.35863
C          5.10237         7.32398         0.58060
C          6.39606         8.04070         0.15908
C          7.59895         7.11884         0.03938
C         -6.18165         9.34347        -0.21769
C         -5.06077        10.02485         0.09050
C         -3.67832         9.42798         0.29961
C         -2.56430         9.97195        -0.62819
C         -1.22649         9.29825        -0.31984
C         -0.00292         9.91078        -0.54163
C          1.25151         9.26210        -0.34595
C          2.50857         9.87485        -0.92414
C          3.84955         9.43543        -0.28977
C          4.97007         9.44518        -1.32505
C          6.13202         8.81037        -1.12389
C        -11.17115        -0.58268        -0.21942
C         -9.98998        -1.42106        -0.06513
C         -8.69855        -0.74921        -0.02304
C         -7.57253        -1.43006         0.35188
C         -6.35183        -0.68014         0.73365
C         -5.12608        -1.44717         1.09246
C         -3.80141        -0.74859         1.25449
C         -2.53481        -1.54280         1.31532
C         -1.19873        -0.81243         1.45763
C          0.06041        -1.56711         1.12150
C          1.25004        -0.73601         0.71578
C          2.52253        -1.49059         0.43058
C          3.79195        -0.73054         0.26619
C          4.90891        -1.38195        -0.50944
C          6.20133        -0.64230        -0.57808
C          7.54221        -1.27606        -0.96704
C          8.70045        -0.88694        -0.03039
C         10.04399        -1.45212        -0.59868
C         11.24937        -0.83182         0.09298
C        -10.07137        -2.78203         0.19977
C         -8.90352        -3.60804         0.36832
C         -7.55545        -2.93854         0.27800
C         -6.45246        -3.67256         1.02665
C         -5.14849        -2.96453         1.17585
C         -3.90748        -3.64593         0.65921
C         -2.61156        -2.89614         0.67398
C         -1.33506        -3.56707         0.22981
C         -0.00662        -2.98094         0.61843
C          1.13271        -3.56858        -0.18944
C          2.41290        -2.80332        -0.29098
C          3.68218        -3.50399        -0.63028
C          4.87761        -2.85661        -0.70411
C          6.15025        -3.55512        -1.09456
C          7.47316        -2.81994        -1.10005
C          8.72924        -3.59474        -0.80712
C          9.89941        -2.96759        -0.54044
C         -8.93254        -4.99012         0.39070
C         -7.74474        -5.82649         0.47564
C         -6.42825        -5.21488         0.94902
C         -5.25253        -5.73534         0.08846
C         -3.88171        -5.16875         0.46371
C         -2.74887        -5.65323        -0.46046
C         -1.42543        -4.91910        -0.40863
C         -0.17738        -5.69917        -0.71452
C          1.14639        -5.09894        -0.25354
C          2.32474        -5.68854        -1.02222
C          3.60645        -4.93911        -1.02737
C          4.83280        -5.64905        -0.53485
C          6.13730        -5.09677        -1.05706
C          7.35986        -5.75798        -0.46003
C          8.68685        -5.12528        -0.87328
C         -7.74870        -7.17185         0.22157
C         -6.46324        -7.96746         0.35167
C         -5.32537        -7.16981        -0.32197
C         -4.05290        -7.89350        -0.68461
C         -2.77755        -7.10097        -0.86384
C         -1.51175        -7.99357        -1.10833
C         -0.21327        -7.15423        -1.05861
C          1.07850        -7.94450        -0.99359
C          2.37759        -7.20224        -1.01416
C          3.68296        -7.89602        -0.64758
C          4.73834        -7.01979         0.02839
C          6.01677        -7.70107         0.54420
C          7.29008        -6.99646         0.07762
C         -6.44810        -9.43609        -0.02198
C         -5.27000       -10.08970        -0.02567
C         -3.97764        -9.37378        -0.25846
C         -2.69538        -9.72168         0.32427
C         -1.47369        -9.12515        -0.02938
C         -0.23923        -9.70047         0.29335
C          1.00066        -9.38701        -0.52730
C          2.31605        -9.90585         0.02182
C          3.51195        -9.26362        -0.04509
C          4.80054        -9.89414         0.26307
C          5.95871        -9.20262         0.35050
O          9.91064         5.58212         1.14486
H          9.59151         5.34981         2.04096
O          3.11780         5.22402        -0.71821
O         -2.89168         9.69764        -1.98945
H         -3.47464         8.90083        -2.03482
O          0.97845         0.25937        -0.33132
O          4.46373        -5.87153         0.90226
O         -1.54291        -8.69231        -2.29163
O         -3.05798        -6.03715        -1.81903
O          1.32557        -5.57401         1.10888
H          2.21076        -5.29845         1.43850
O          7.49149         3.00351        -1.49484
O          6.03172        -7.56030         1.99348
H          5.67609        -6.66378         2.19355
O          6.77744        -3.12579        -2.34373
O         -1.27495        -0.12589         2.76326
O          6.72091         0.93961         1.39026
O         -6.02583        -0.94942         2.14620
O         -5.05938         7.74582        -1.64665
O          3.91668         1.40586        -0.97258
O         -3.89803         5.48842        -1.52885
O          1.82573        -7.79368        -2.23517
O         -6.59190         1.42971         1.82062
H         -6.33385         0.78059         2.52060
O         -4.06022        -8.92471        -1.66817
O         -9.11412         0.65305        -1.91987
O          8.42272        -1.57931         1.20408
H          8.77295        -1.01094         1.93195
O         -4.08871         0.50592        -0.72864
O         -5.93024        -3.32192         2.34112
O          3.50964        -1.45635         1.50115
O         -1.38088        -3.71246        -1.22570
O          5.28339        -0.66682        -1.72275
O         -0.61319         7.03615        -1.07970
O         -3.29859        -1.24115         2.52611
O          6.12426        -5.51827        -2.44985
O          4.42971         7.97696         1.69497
O         -7.49907         3.53583         1.02397
O         -5.62570        -6.08342        -1.26063
O          3.46074         3.43195         2.35206
O         -6.16881        -5.63854         2.28148
O         -6.63309         4.78889         1.03593
O          2.87112        -5.15655        -2.26191
O          9.76643        -5.68959        -0.13845
H          9.66863        -5.43714         0.80229
O         -0.75008         5.87000         2.20336
O          0.31228        -2.71055         2.00723
O         -7.20561        -3.22023        -1.18019
O         -6.63644         1.18527        -1.76747
H         -7.34292         0.98773        -2.42580
O          7.79776        -0.74096        -2.27805
H          7.02618        -0.99577        -2.83746
O          1.43524        -2.82356        -1.38760
O         -3.07682         3.16235        -1.71704
H         -3.60005         3.75873        -2.29845
O         -0.16015        -6.14521        -2.09250
O         -1.67312         1.79467        -0.38393
O          0.48370         1.60003         3.07813
H          0.08464         0.83004         3.55014
O         10.29813        -1.09223        -1.97099
H          9.46809        -1.20062        -2.49706
O         -3.51384        -2.86965        -0.49977
O          9.32011         0.79693         1.67426
O          5.81053         5.45001         1.98289
O         -5.97085        -2.49736        -1.46129
H         -5.52027        -3.09367        -2.10988
O         -3.34719         5.66004         1.95046
H         -2.72637         5.87840         2.68186
O          3.02230         0.92638         2.58523
H          3.48674         1.66862         3.03655
O          0.63605       -10.18995        -1.68807
H         -0.15308        -9.72514        -2.12381
O         -1.70877         3.40993         2.67731
H         -1.09859         3.91573         3.25891
O          2.52146         9.45236        -2.29873
H          1.63236         9.59238        -2.68585
O          4.44177        -8.08758        -1.95092
H          5.80346        -6.44656        -2.50435
O          3.99503        -9.31323        -2.57485
H          3.07739        -9.06867        -2.87742
O         -3.58457        -5.74999         1.75525
H         -4.44631        -5.70667         2.28256
O          4.16658        10.39944         0.72335
H          5.01947        10.11331         1.13555
O          6.69936         9.03345         1.17307
H          6.69270         8.58050         2.04347
O         -6.09920        -8.10034         1.75364
H         -6.25912        -7.21967         2.22041
O         -3.26160         9.81748         1.63420
H         -3.91639         9.47733         2.27893
O          1.64789         5.39649         2.64046
H          2.39020         4.80366         2.91973
H         12.17476        -1.42889         0.12058
H         12.24998         0.92689         0.73863
H         11.00196         3.34045         0.58177
H          9.41249         5.30183        -0.82567
H          8.53350         7.62611        -0.25059
H          6.93879         8.87547        -1.86944
H          4.81913        10.03296        -2.24219
H          2.44429        10.99762        -0.87805
H          0.01071        10.95724        -0.88639
H         -2.46461        11.08083        -0.50137
H         -5.14491        11.09614         0.33166
H         -7.14882         9.86724        -0.26091
H         -8.23153         7.60425        -1.27806
H         -9.30262         5.44082        -1.79274
H        -10.62735         3.41155        -1.42048
H        -12.05205         1.33357        -0.55363
H        -12.14925        -1.05502        -0.04104
H        -11.06097        -3.26226         0.24860
H         -9.90543        -5.50061         0.29873
H         -8.67415        -7.68217        -0.08995
H         -7.39090       -10.00222         0.01134
H         -5.24093       -11.18696        -0.11578
H         -2.72011       -10.37563         1.21330
H         -0.26037       -10.72103         0.71643
H          2.29657       -10.93678         0.41026
H          4.82248       -10.99369         0.31223
H          6.89809        -9.75276         0.51298
H          8.23460        -7.48062         0.37890
H          8.84380        -5.40780        -1.95105
H         10.79489        -3.58321        -0.35355
