         598
 CSIRO Nanostructure Databank - Neutral Graphene Oxide Data Set
C         23.26808        69.57729         2.72813
C         23.30000        70.93464         3.14602
C         22.42598        71.46663         4.10522
C         23.59498        73.61621         4.10988
C         22.55994        72.79758         4.54611
C         25.58529        65.44397         1.39018
C         25.56051        66.81964         1.47993
C         24.22873        67.50372         1.70198
C         25.52776        69.67683         1.76941
C         24.33326        68.96697         2.06362
C         25.51898        71.14044         1.84718
C         24.31479        71.82246         2.57322
C         25.68591        73.87460         2.80429
C         24.54478        73.15028         3.15956
C         28.02076        61.20179         0.68831
C         27.98704        62.61228         0.73136
C         26.79803        63.32861         1.02797
C         28.00554        65.47445         0.89939
C         26.79227        64.72701         1.10851
C         27.98275        66.90752         1.00193
C         26.76630        67.57939         1.30828
C         27.95054        69.76070         1.28957
C         26.74213        69.01010         1.44649
C         27.96528        71.18550         1.49335
C         26.77871        71.87796         1.82342
C         28.02326        73.98308         2.00892
C         26.80794        73.26582         2.16133
C         30.49975        56.97407         0.03838
C         30.45196        58.38838         0.02992
C         29.26554        59.08187         0.35646
C         30.41402        61.24104         0.11304
C         29.21002        60.49604         0.38869
C         30.38885        62.65465         0.20993
C         29.20129        63.35686         0.50620
C         30.42393        65.54226         0.39580
C         29.20678        64.78830         0.60774
C         30.39438        66.97609         0.46420
C         29.18209        67.65713         0.78624
C         30.35379        69.84482         0.79236
C         29.16100        69.08957         0.95064
C         30.37362        71.23135         1.04592
C         29.19014        71.91498         1.38996
C         30.42605        74.08021         1.45846
C         29.21405        73.34418         1.61885
C         32.76254        52.67347        -0.41672
C         32.77499        54.06049        -0.73576
C         31.70966        54.84693        -0.27822
C         32.82853        57.00505        -0.72582
C         31.66584        56.27372        -0.33769
C         32.84167        58.42058        -0.73054
C         31.63512        59.13370        -0.34190
C         32.74497        61.30123        -0.79556
C         31.59196        60.53140        -0.28909
C         32.88337        62.70075        -0.30275
C         31.65467        63.40974         0.17143
C         32.85408        65.59913        -0.09710
C         31.64038        64.88350         0.14591
C         32.81004        67.03976        -0.06688
C         31.59484        67.69990         0.20000
C         32.82888        69.94172         0.05235
C         31.53607        69.17396         0.20911
C         32.91899        71.30117         0.67936
C         31.65569        71.97166         1.13097
C         32.86030        74.16189         0.99114
C         31.65835        73.45293         1.19115
C         35.45296        48.55627        -0.79000
C         35.36712        49.90812        -1.15192
C         34.19709        50.58224        -0.59037
C         35.25760        52.75397        -2.06028
C         33.61277        51.74051        -1.06509
C         35.24425        54.03465        -1.61982
C         33.93510        54.75336        -1.40395
C         35.28156        56.99130        -1.26175
C         33.99437        56.26606        -1.24073
C         35.26401        58.38834        -1.28633
C         34.03509        59.10743        -1.12037
C         35.25387        61.38601        -1.33505
C         33.98401        60.57925        -1.26652
C         35.26719        62.79639        -0.85379
C         34.10176        63.48502        -0.60103
C         35.29492        65.66562        -0.53421
C         34.07864        64.91690        -0.37995
C         35.26350        67.06554        -0.44319
C         34.04163        67.79026        -0.25258
C         35.28327        69.99376        -0.39930
C         34.07348        69.18678        -0.14263
C         35.28450        71.47031        -0.10582
C         34.09186        72.13548         0.42165
C         35.30145        74.28443         0.35440
C         34.09396        73.52913         0.61920
C         37.71690        44.27317        -0.20028
C         37.71394        45.58619        -0.69324
C         36.57135        46.39185        -0.66179
C         37.75829        48.40843        -1.55393
C         36.59205        47.76803        -1.04009
C         37.70276        49.76261        -1.95437
C         36.47947        50.49350        -1.86842
C         37.71197        52.64992        -2.65059
C         36.44269        51.90539        -2.34953
C         37.77210        54.06222        -2.11445
C         36.55420        54.72969        -1.52112
C         37.84413        56.95928        -1.44479
C         36.55503        56.22048        -1.27633
C         37.81858        58.46406        -1.39583
C         36.50822        59.11888        -1.81690
C         37.82780        61.30119        -1.23215
C         36.52549        60.63852        -1.57599
C         37.82962        62.75496        -0.87136
C         36.55314        63.48920        -0.46491
C         37.75884        65.62675        -0.89459
C         36.55519        64.96986        -0.75532
C         37.81278        67.07734        -0.62875
C         36.53660        67.79929        -0.35628
C         37.86398        69.89741         0.09616
C         36.61461        69.29158        -0.63675
C         37.86110        71.42731         0.15505
C         36.56887        72.18395         0.16255
C         37.80105        74.30918         0.07383
C         36.54343        73.66921         0.10363
C         40.13102        40.03611         1.01367
C         40.15487        41.55267         0.95871
C         38.90920        42.24100         0.47002
C         40.17885        44.19563        -0.42043
C         38.92755        43.52421        -0.06677
C         40.23292        45.48086        -0.91027
C         38.96332        46.15789        -1.24923
C         40.30948        48.28086        -1.73848
C         38.99204        47.59677        -1.69954
C         40.29941        49.65796        -2.30179
C         38.96542        50.37731        -2.49757
C         40.31980        52.63619        -2.79256
C         39.00598        51.86921        -2.78941
C         40.29058        54.14087        -2.69779
C         38.98145        54.86727        -2.50218
C         40.28479        57.10058        -2.36517
C         38.99000        56.34936        -2.20254
C         40.38039        58.49253        -1.86070
C         39.11532        59.18814        -1.54950
C         40.27011        61.34124        -1.63236
C         39.09299        60.65281        -1.67869
C         40.23362        62.81993        -1.62756
C         39.02083        63.54512        -1.25002
C         40.26697        65.66675        -1.07208
C         39.02362        64.93183        -1.11505
C         40.27523        67.12114        -0.61694
C         39.03235        67.87641        -1.07698
C         40.26945        70.04349        -0.63314
C         39.09334        69.32349        -0.57732
C         40.31072        71.49958        -0.40165
C         39.10452        72.17414        -0.12094
C         40.28880        74.27396         0.06027
C         39.04471        73.60082        -0.02204
C         42.56711        35.75909         1.78594
C         42.57257        37.27311         1.70860
C         41.36567        37.91362         1.41376
C         42.62067        40.01143         1.06342
C         41.29748        39.32330         1.15414
C         42.68009        41.41434         0.59819
C         41.37475        42.03327         0.20113
C         42.77127        44.02659        -0.63504
C         41.41040        43.38619        -0.40592
C         42.69727        45.54602        -0.77998
C         41.49877        46.19040        -1.06829
C         42.79343        48.31022        -1.47319
C         41.47954        47.60773        -1.45047
C         42.86389        49.79221        -1.80397
C         41.60845        50.43661        -2.33469
C         42.77820        52.72952        -2.01609
C         41.62611        51.93615        -2.52022
C         42.74520        54.16893        -2.13283
C         41.57194        54.85875        -2.47393
C         42.86809        57.10972        -2.49191
C         41.55987        56.33762        -2.64692
C         42.84351        58.55701        -2.10605
C         41.56520        59.21624        -1.91585
C         42.73692        61.34550        -1.47181
C         41.55181        60.65322        -1.68725
C         42.69167        62.75555        -0.93434
C         41.53383        63.55845        -1.47610
C         42.74326        65.64606        -1.01150
C         41.48205        64.98766        -1.13513
C         42.75859        67.09809        -1.24683
C         41.48307        67.87977        -1.13231
C         42.71248        70.04352        -0.92883
C         41.51915        69.35307        -0.91528
C         42.76349        71.49489        -0.79664
C         41.54468        72.22902        -0.49674
C         42.69898        74.37762         0.32909
C         41.52692        73.62509        -0.10213
C         45.03971        33.19157         3.14017
C         43.84776        33.80976         2.70845
C         45.02711        35.91599         2.42891
C         43.83330        35.15461         2.34534
C         45.01547        37.32934         2.16122
C         43.78671        37.98574         1.88405
C         45.05374        40.17981         1.62687
C         43.73811        39.49345         1.94081
C         45.08711        41.52340         1.21384
C         43.77202        42.30205         1.18955
C         45.11989        44.20420         0.03334
C         43.77143        43.74083         0.56092
C         45.15465        45.66264        -0.18724
C         43.92563        46.30131        -0.58780
C         45.08146        48.47883        -0.36214
C         43.92004        47.67677        -0.77140
C         45.06204        49.99337        -0.54220
C         43.93245        50.65392        -1.25212
C         45.03731        52.86123        -0.96907
C         43.89299        52.04367        -1.45428
C         45.13545        54.25528        -1.42733
C         43.99209        54.92815        -1.91192
C         45.34176        57.04405        -2.08338
C         44.06403        56.31940        -2.15098
C         45.32858        58.59386        -1.97956
C         44.01327        59.25959        -1.85164
C         45.17002        61.34960        -1.12435
C         43.99448        60.65885        -1.47618
C         45.19007        62.77148        -0.89079
C         43.99452        63.50763        -0.95763
C         45.18281        65.67615        -0.67651
C         43.96036        64.93834        -0.91177
C         45.23636        67.06820        -0.69122
C         44.05374        67.82386        -1.17799
C         45.22178        70.00483        -0.66139
C         43.99757        69.31371        -1.07379
C         45.26504        71.37021        -0.82098
C         44.01840        72.09191        -1.00942
C         45.19471        74.69664         0.48009
C         43.99424        74.20466        -0.12176
C         46.22211        33.90499         3.19003
C         47.44591        36.03164         2.85595
C         46.24551        35.28432         2.83598
C         47.46625        37.39531         2.49842
C         46.23572        38.06486         2.19485
C         47.50922        40.12070         1.66433
C         46.26151        39.46155         1.83756
C         47.53409        41.44443         1.17483
C         46.33780        42.13320         0.94509
C         47.63923        44.25467         0.38120
C         46.39455        43.47068         0.30480
C         47.60157        45.65941         0.19746
C         46.36486        46.36390        -0.08108
C         47.57505        48.52615        -0.05602
C         46.38339        47.79826        -0.18395
C         47.56791        49.98568        -0.14774
C         46.36581        50.67679        -0.43754
C         47.56406        52.89369        -0.26400
C         46.28682        52.13474        -0.44938
C         47.67789        54.20871        -0.94798
C         46.45606        54.90776        -1.47294
C         47.73005        57.06916        -1.36113
C         46.55738        56.37070        -1.62516
C         47.71690        58.52120        -1.25275
C         46.51489        59.21710        -1.39109
C         47.71443        61.35175        -0.62290
C         46.41104        60.58951        -0.89006
C         47.67377        62.82795        -0.62250
C         46.43330        63.46298        -0.63336
C         47.68985        65.65696        -0.16285
C         46.37555        64.89798        -0.31511
C         47.64629        67.12577        -0.22907
C         46.43506        67.78981        -0.38218
C         47.66706        69.99929        -0.06412
C         46.35369        69.25777        -0.03310
C         47.67273        71.45221        -0.10933
C         46.52207        72.06458        -0.60682
C         47.71233        74.46260         0.72889
C         46.47121        74.23041         0.11896
C         48.69707        38.11517         2.43326
C         49.97808        40.16018         1.92622
C         48.74707        39.43822         1.99236
C         50.04857        41.46784         1.43459
C         48.84304        42.05014         0.72581
C         50.05827        44.24283         0.72378
C         48.84301        43.56547         0.70078
C         50.07407        45.66564         0.36177
C         48.80995        46.41164         0.26986
C         50.04147        48.54640         0.44069
C         48.81809        47.81907         0.17644
C         50.02831        50.00421         0.34750
C         48.80014        50.68296         0.06934
C         50.15115        52.91231         0.13583
C         48.81574        52.15966         0.11597
C         50.14850        54.19535        -0.67963
C         48.91694        54.98835        -0.78152
C         50.22517        57.03932        -0.92806
C         48.96346        56.34122        -1.05140
C         50.17493        58.49650        -0.71563
C         48.92835        59.23584        -0.91031
C         50.21893        61.36821        -0.88156
C         48.98005        60.62924        -0.81420
C         50.14918        62.84538        -0.99493
C         48.90870        63.56297        -0.63572
C         50.16242        65.72015        -0.44874
C         48.94466        64.95112        -0.46082
C         50.09224        67.12270        -0.14278
C         48.87926        67.83572        -0.05322
C         50.03389        69.99945         0.55521
C         48.83702        69.28003         0.08489
C         50.02611        71.47552         0.59290
C         48.88517        72.20166         0.26729
C         50.11626        74.28665         0.82442
C         48.88872        73.65613         0.54831
C         51.24425        42.20526         1.45475
C         52.49606        44.30467         1.20354
C         51.29608        43.57896         1.08216
C         52.56559        45.72347         1.09597
C         51.36238        46.44899         0.61058
C         52.38117        48.62789         1.33162
C         51.22268        47.89044         0.79086
C         52.40489        50.10835         1.10963
C         51.23161        50.71489         0.47424
C         52.63940        52.83435         0.03055
C         51.36191        52.03838        -0.23523
C         52.68540        54.20965        -0.29553
C         51.47165        54.90022        -0.78683
C         52.70036        57.05889        -0.69131
C         51.43951        56.37066        -0.79522
C         52.70510        58.49563        -1.03275
C         51.47617        59.27524        -0.73699
C         52.73159        61.44039        -0.98505
C         51.45370        60.73250        -0.95589
C         52.73039        62.88487        -0.82261
C         51.46014        63.62767        -0.95177
C         52.64672        65.70780        -0.31038
C         51.42138        65.05450        -0.56990
C         52.66546        67.17187        -0.19453
C         51.34401        67.89858        -0.10560
C         52.62767        69.93777         0.68593
C         51.34088        69.23255         0.55923
C         52.58699        71.34939         1.13482
C         51.26856        72.12856         1.05893
C         52.58437        74.24814         1.02941
C         51.35392        73.60012         0.94410
C         53.73191        46.43059         1.32811
C         54.95742        48.66989         1.32688
C         53.72582        47.89274         1.48632
C         54.98910        50.05136         1.15681
C         53.72997        50.83768         1.08851
C         55.02083        52.91572         0.60341
C         53.79868        52.20547         0.51295
C         55.04152        54.29757         0.30915
C         53.87439        54.96205        -0.13770
C         55.15843        57.13016        -0.38687
C         53.89756        56.39345        -0.43179
C         55.22105        58.52046        -0.66703
C         54.00031        59.25664        -1.05274
C         55.22537        61.42620        -0.88960
C         53.93510        60.72999        -0.93757
C         55.20362        62.93717        -0.62284
C         53.88972        63.58677        -0.49982
C         55.09027        65.68441         0.11832
C         53.87126        64.99607        -0.20516
C         55.06436        67.10357         0.32975
C         53.88443        67.84706         0.27242
C         55.04580        69.90199         1.21732
C         53.82484        69.25634         0.58919
C         55.06407        71.41597         1.09520
C         53.84845        72.11784         1.07915
C         55.07747        74.22726         1.09666
C         53.83846        73.54395         1.09324
C         56.20563        50.76435         1.01178
C         57.49106        52.83881         0.77383
C         56.26267        52.17816         0.85086
C         57.58943        54.29332         0.79104
C         56.25141        55.08966         0.56307
C         57.58738        57.13021         0.07215
C         56.34035        56.46423         0.05447
C         57.63441        58.50417        -0.26649
C         56.44417        59.23513        -0.53060
C         57.60499        61.41502        -0.24056
C         56.46071        60.68285        -0.57858
C         57.54942        62.80234         0.14026
C         56.38429        63.56492        -0.00449
C         57.53064        65.67133         0.64158
C         56.32819        64.97287         0.28799
C         57.58606        67.07173         0.67092
C         56.35228        67.82326         0.41115
C         57.58385        69.92945         1.13948
C         56.33962        69.29437         0.69629
C         57.52813        71.35213         1.45833
C         56.28090        72.10686         1.21872
C         57.56874        74.22769         1.06413
C         56.30695        73.53396         1.16015
C         58.81746        55.01324         0.49269
C         60.07922        57.09540         0.26431
C         58.83533        56.39571         0.29920
C         60.15998        58.47848         0.03530
C         58.92802        59.17611        -0.37070
C         60.10874        61.34174         0.25870
C         58.91260        60.73280        -0.29050
C         60.00707        62.64765         0.89015
C         58.71038        63.39879         0.84260
C         60.04559        65.61599         1.10834
C         58.73388        64.91047         1.04224
C         60.02544        67.07011         1.08448
C         58.79815        67.77749         0.95003
C         60.03270        69.95342         1.06329
C         58.78526        69.22310         1.09383
C         60.06336        71.36792         1.01952
C         58.86791        72.13403         1.35939
C         60.02682        74.23394         0.73524
C         58.79896        73.57650         1.04443
C         61.35337        59.22250         0.13578
C         62.55884        61.39016         0.42195
C         61.34658        60.64273         0.26210
C         62.57486        62.77227         0.65540
C         61.31566        63.43480         1.07648
C         62.54298        65.59937         1.22266
C         61.23952        64.90702         1.10309
C         62.53650        67.10994         1.21999
C         61.24438        67.81824         1.07762
C         62.47524        69.90835         0.43788
C         61.23714        69.20828         0.92946
C         62.47737        71.40546         0.57750
C         61.27513        72.08919         0.73163
C         62.45922        74.22395         0.31913
C         61.24205        73.54350         0.62033
C         63.76346        63.53446         0.55709
C         64.97961        65.67544         0.70631
C         63.80059        64.92340         0.81957
C         65.00338        67.10947         0.77794
C         63.79461        67.80093         0.92114
C         65.02381        70.01939         0.67936
C         63.75177        69.26585         0.91763
C         64.91571        71.41451         0.22276
C         63.70915        72.09925         0.30964
C         64.90480        74.23804        -0.06073
C         63.67353        73.54939         0.15687
C         66.22360        67.85587         0.54640
C         67.43962        69.99427         0.15767
C         66.25840        69.24064         0.44923
C         67.41236        71.36933        -0.07951
C         66.11231        72.07008        -0.35035
C         67.35835        74.23116        -0.31895
C         66.11926        73.56071        -0.21219
C         68.60229        72.13099        -0.19789
C         68.56471        73.51916        -0.34275
O         32.55125        71.31806         2.11534
O         55.42822        62.40366        -1.96748
O         38.47722        58.89813        -0.18678
O         59.10465        60.00910        -1.54766
O         46.54673        73.38551        -1.01393
O         62.64686        66.34403         2.48161
O         56.80882        54.91506         1.88186
O         31.90245        69.82401        -1.07941
O         36.82417        52.29449        -3.73672
O         35.07467        70.99799        -1.49420
O         33.61728        55.59618        -2.54747
O         44.68441        49.37824         0.75699
O         34.04012        52.14731        -2.34538
O         41.95157        67.44967        -2.43194
O         52.06995        67.87109        -1.36914
O         44.12668        73.44256        -1.30981
O         37.47529        56.46589        -0.13257
O         58.26932        71.76614         2.63785
O         45.75064        43.43834        -1.02832
O         52.84436        48.25206         2.64564
O         50.76281        63.35420        -2.22438
O         37.37759        67.31864         0.74614
O         53.34998        58.78287        -2.30593
O         38.05591        61.70262         0.16211
O         44.28402        68.63236        -2.37986
O         60.66759        62.74553         2.18769
O         58.40399        63.98816         2.13998
O         38.87359        50.89658        -3.85106
O         54.99290        69.58399         2.58988
O         38.86708        46.50298        -2.67770
O         64.44182        69.87151         2.04476
O         45.55694        57.92194        -3.24502
O         39.47619        54.62962        -3.83354
O         50.87835        58.88037         0.53535
O         46.92500        60.77308         0.47586
O         35.87581        61.32845        -2.69237
O         24.42157        71.77484         1.12406
O         45.26648        52.68644         0.47634
O         32.98414        61.09611        -2.22185
O         47.94943        52.80181         1.13977
O         50.87498        54.22763        -1.96464
O         50.53946        69.31384         1.77377
O         50.99768        45.99382        -0.73950
O         32.62195        62.81323         1.13878
O         51.78689        71.61028         2.32901
O         47.35613        54.11319        -2.38281
O         41.01219        63.30742        -2.79944
O         37.21123        71.81715         1.43647
O         42.28621        56.82658        -3.81503
O         46.94534        65.17344         1.01173
O         43.33102        48.78998        -2.77090
O         65.96545        71.81971        -1.93565
O         41.12356        49.74029        -3.50372
O         37.53993        54.03528        -0.66436
O         43.09174        40.33416        -0.28789
O         39.26096        57.08554        -3.43105
O         41.21309        42.16452        -1.23378
O         52.89795        50.83423         2.29642
O         56.41626        68.84399        -0.68788
O         41.21752        52.28611        -3.88132
O         43.31376        43.51933        -1.85365
H         42.80897        42.70559        -2.09188
O         50.40264        53.33010         1.49653
H         49.53229        53.40321         1.95404
O         43.39948        44.69825         1.57161
H         43.25327        44.20780         2.41620
O         43.42053        42.48242         2.59014
H         43.30959        41.59070         3.01620
O         43.37904        39.85234         3.32815
H         44.07968        39.49865         3.91691
O         62.48730        69.63979        -1.01491
H         61.75183        70.14462        -1.42259
O         23.45132        66.78553         2.66822
H         23.94873        66.76796         3.51115
O         45.98996        69.25167         1.41067
H         46.70342        68.77719         1.89171
O         48.98091        41.64559        -0.67616
H         49.76941        42.09883        -1.04287
O         42.36330        62.62062         0.49554
H         43.12552        62.19660         0.94490
O         64.74949        72.41950        -2.36454
H         65.00909        73.34634        -2.59068
O         40.33801        67.14244         0.82453
H         39.42456        67.20380         1.18800
O         36.46462        58.91077        -3.24482
H         35.90079        59.62164        -3.63143
O         40.36047        42.00760         2.34528
H         39.59904        41.69686         2.87893
O         51.32966        51.68180        -1.63670
H         51.31140        52.52225        -2.16212
O         37.94028        69.46130         1.46606
H         37.61357        70.19697         2.03606
O         39.06643        67.87567        -2.51510
H         38.32548        68.44662        -2.82746
O         36.51651        63.48426         1.00101
H         36.97464        62.66471         1.30311
O         41.41942        35.29600         2.51068
H         41.50673        35.58672         3.44127
O         36.90155        69.40499        -2.05817
H         36.32493        70.12761        -2.41382
H         23.70812        74.62763         4.52596
H         25.80099        74.90300         3.17946
H         28.04042        75.05860         2.23994
H         30.39230        75.17519         1.56432
H         32.83843        75.25956         1.06921
H         35.25423        75.38124         0.43093
H         37.84170        75.40636         0.15344
H         40.28876        75.34800         0.29928
H         42.52273        75.12799         1.11536
H         45.10045        75.33096         1.37282
H         47.81509        75.34144         1.38452
H         50.11878        75.38032         0.95137
H         52.60777        75.34792         0.98611
H         55.08296        75.32717         1.06692
H         57.54370        75.31553         0.89578
H         60.01400        75.32191         0.56776
H         62.43819        75.32051         0.22379
H         64.90458        75.33930        -0.04588
H         67.37476        75.33087        -0.32805
H         22.42358        68.94477         3.04130
H         21.63378        70.83168         4.52704
H         21.85076        73.18218         5.29233
H         24.65251        64.87931         1.53533
H         23.65187        67.44077         0.73524
H         27.10003        60.63709         0.89761
H         25.86356        62.77376         1.19817
H         29.60387        56.40812         0.33397
H         28.35802        58.50473         0.58924
H         32.08828        52.33018         0.38293
H         30.83895        54.33235         0.15600
H         34.59472        48.08903        -0.28530
H         33.78946        50.13249         0.32799
H         36.77393        43.83197         0.15661
H         35.63260        45.97660        -0.26565
H         39.16168        39.51834         1.09199
H         37.93605        41.79910         0.73890
H         42.44453        35.37084         0.73534
H         40.44570        37.31167         1.37252
H         45.02583        32.12887         3.41956
H         42.91733        33.22774         2.65023
H         47.15563        33.41717         3.50488
H         48.38771        35.53061         3.12492
H         49.62993        37.59418         2.69590
H         50.89116        39.68011         2.31167
H         52.15671        41.73344         1.85124
H         53.40321        43.76512         1.51519
H         54.67132        45.88755         1.51357
H         55.90381        48.11064         1.26613
H         57.15222        50.21190         1.11133
H         58.41999        52.25068         0.72992
H         59.76163        54.45014         0.44760
H         60.99876        56.53678         0.49417
H         62.30263        58.68920         0.29231
H         63.51371        60.87040         0.25306
H         64.69389        63.02404         0.26552
H         65.91737        65.14988         0.47065
H         67.15149        67.28672         0.38311
H         68.41119        69.47568         0.16672
H         69.57209        71.62063        -0.10550
H         69.51028        74.07526        -0.41009
