         261
 CSIRO Nanostructure Databank - Neutral Graphene Oxide Data Set
C        -11.38237         0.76850         0.08601
C        -10.34241         1.76998         0.29194
C         -8.50058         0.67266         0.21626
C         -7.48489         1.56106        -0.32802
C         -6.23765         0.85476        -0.84027
C         -4.99825         1.57760        -0.48473
C         -3.83193         0.68652        -0.07001
C         -2.53583         1.49505        -0.08606
C         -1.21453         0.81802        -0.07791
C          0.01682         1.52977         0.51202
C          1.25763         0.77998        -0.02914
C          2.57509         1.54078         0.22365
C          3.78214         0.79087         0.75106
C          5.01561         1.54788         1.20094
C          6.33771         0.82280         1.07405
C          7.53303         1.43613         0.40107
C          8.69260         0.60934        -0.06149
C          9.79877         1.33362        -0.67457
C         10.94224         0.51621        -1.06577
C        -10.10154         3.00063        -0.26715
C         -8.83412         3.72775        -0.11469
C         -7.49244         3.01124         0.11290
C         -6.28865         3.76450        -0.53190
C         -5.03110         2.92403        -0.26458
C         -3.87806         3.59872         0.38945
C         -2.58447         2.87853         0.47573
C         -1.28636         3.64893         0.68886
C         -0.01947         3.01566         0.12193
C          1.24972         3.77466         0.45076
C          2.54332         3.03340         0.30811
C          3.73916         3.76733         0.84637
C          4.99028         3.08654         1.28781
C          6.23709         3.99980         1.45772
C          7.39728         2.76284        -0.30036
C          8.64378         3.53772        -0.47482
C          9.79868         2.71567        -0.78538
C         -8.79914         5.09775        -0.19925
C         -7.56595         5.86252        -0.10403
C         -6.34587         5.05441         0.30306
C         -5.05454         5.89718         0.46283
C         -3.78951         5.08567         0.24082
C         -2.50315         5.84667         0.37207
C         -1.28679         5.13598         0.89303
C          0.04522         5.89196         1.11991
C          1.23216         5.13453         0.55236
C          2.45312         5.88794         0.20008
C          3.80519         5.14877         0.29885
C          5.00977         5.94648         0.29532
C          6.31751         5.42890         0.83832
C          7.44002         5.75378        -0.17635
C          8.61063         4.91584        -0.44730
C         -7.51601         7.20901        -0.32470
C         -6.23733         7.93077        -0.55270
C         -4.95760         7.18004        -0.34471
C         -3.67168         7.93544        -0.22195
C         -2.52521         7.33445         0.19522
C         -1.24537         8.10246         0.32817
C         -0.00115         7.39679         0.81654
C          1.38211         8.05644         0.89130
C          2.51744         7.33650         0.25497
C          3.67568         7.94832        -0.22275
C          4.91671         7.21323        -0.24715
C          6.13768         7.86482        -0.84010
C          7.38968         7.01069        -0.71629
C         -6.14846         9.40976        -0.49776
C         -4.96726        10.05520        -0.53102
C         -3.67281         9.32288        -0.83074
C         -2.40510        10.09712        -0.57240
C         -1.19755         9.47393        -0.29589
C          0.02726        10.16263        -0.56001
C          1.23861         9.48724        -1.05435
C          2.59302        10.10392        -0.85042
C          3.71482         9.39410        -0.50942
C          5.03494        10.02552        -0.36951
C          6.18694         9.32329        -0.44280
C        -11.18047        -0.57993         0.23013
C         -9.90952        -1.31772         0.30184
C         -8.68461        -0.62573        -0.12724
C         -7.59031        -1.36946        -0.80273
C         -6.27015        -0.65340        -0.99669
C         -5.00774        -1.43957        -0.88193
C         -3.73100        -0.59270        -0.98399
C         -2.43084        -1.37685        -0.67085
C         -1.18661        -0.67674        -0.22411
C         -0.03286        -1.40653         0.39629
C          1.25966        -0.66147         0.49679
C          2.53755        -1.42803         0.31778
C          3.82766        -0.67723         0.35729
C          5.12421        -1.43477         0.47497
C          6.35252        -0.67108         0.87611
C          7.74643        -1.22890         1.22316
C          8.79746        -0.70895         0.31055
C         10.09217        -1.49588         0.19521
C         11.06035        -0.78663        -0.72708
C         -9.81502        -2.65357         0.57876
C         -8.44500        -3.31322         0.55874
C         -7.70035        -2.88774        -0.71969
C         -6.32953        -3.58940        -0.86191
C         -5.04705        -2.80548        -0.86686
C         -3.77153        -3.59330        -0.85776
C         -2.48877        -2.87707        -0.59021
C         -1.34773        -3.62611         0.06517
C         -0.07142        -2.90718         0.38292
C          1.24167        -3.63088         0.04986
C          2.49293        -2.91484         0.57904
C          3.77584        -3.67702         0.74678
C          5.10490        -2.95305         0.66368
C          6.34961        -3.75290         0.38033
C          7.49254        -3.19884        -0.48860
C          8.84667        -3.78684        -0.22104
C          9.99107        -2.99098        -0.09690
C         -8.48252        -4.82815         0.68506
C         -7.49586        -5.63211         0.23148
C         -6.31708        -5.04532        -0.48773
C         -5.02178        -5.77787        -0.28453
C         -3.74533        -5.05872        -0.50543
C         -2.45271        -5.82940        -0.74737
C         -1.23378        -5.11073        -0.22667
C         -0.07768        -5.83952         0.41289
C          1.21682        -5.09418         0.48185
C          2.48040        -5.82276         0.11038
C          3.78114        -5.18476         0.53010
C          5.05101        -5.97225         0.34478
C          6.42565        -5.30135         0.46111
C          7.45488        -5.84589        -0.55874
C          8.80132        -5.18882        -0.30726
C         -7.48784        -7.11783         0.60754
C         -6.34393        -7.94026         0.01719
C         -5.10185        -7.25793        -0.48786
C         -3.83572        -8.04995        -0.70798
C         -2.51463        -7.33456        -0.89892
C         -1.39479        -8.10747         0.50572
C         -0.05596        -7.35482         0.43961
C          1.21283        -8.07395         0.08580
C          2.44275        -7.26832        -0.26447
C          3.73531        -8.00911        -0.47327
C          5.00937        -7.32484        -0.25380
C          6.23431        -8.03530        -0.42717
C          7.44959        -7.35130        -0.48973
C         -6.18148        -9.33882         0.48593
C         -5.03240       -10.03729         0.36336
C         -3.82223        -9.50538        -0.30304
C         -2.50589       -10.20632        -0.20884
C         -1.33862        -9.53944         0.00076
C         -0.04139       -10.18338        -0.20145
C          1.15518        -9.53362        -0.21669
C          2.45002       -10.33138        -0.23840
C          3.72038        -9.53211        -0.53487
C          5.02684       -10.19186        -0.32941
C          6.18674        -9.49484        -0.39928
O         -6.43897        -4.63765        -1.88363
O         -7.14544        -0.99255        -2.13496
O          6.02273        -0.90556        -0.53499
O         -1.35560        -1.05884        -1.62462
O         -9.33855         1.27645         1.16249
O         -3.47203         2.96599         1.64866
O          2.32819        -6.22580        -1.29465
O         10.68964        -1.45024         1.53107
H          9.99782        -1.77215         2.15940
O         -6.64471         4.52422         1.66341
O          3.09469         5.28410        -0.96496
O          1.07097         0.69889        -1.45242
H          1.87658         0.28852        -1.84475
O         -0.87770         8.09446         1.76248
O          1.10667         8.41509        -1.67285
O         -1.37584         4.20338         2.02612
O         -0.99444        -3.33404         1.43642
O          1.37445        -3.56126        -1.38402
H          0.69266        -4.11791        -1.81961
O         -5.51537         7.24846        -1.68188
O          6.95548        -5.43816        -1.86450
H          7.61434        -5.68512        -2.54634
O          7.41475         1.35769         1.86761
O         -7.13763         3.12452         1.52444
O         -4.02438        -9.08782        -1.71712
O         -1.43057        -5.32262        -1.65314
O          0.46102        -5.33055         1.67641
O          2.94723        -3.29085         1.89510
O          8.02581        -1.90038         2.20058
O          3.67082        -8.75693        -1.75865
O         -6.15676        -7.67037        -1.40111
O          2.86895         2.36291        -0.95128
O          3.18936        -1.00284        -0.92250
O          6.63566         6.25892         1.98796
O          4.10244         0.94434         2.16305
O         -2.98764         5.32964        -0.94889
O          0.83440        -7.83806         1.49173
O          1.54402         9.05301         1.57885
O          6.33459         3.09171        -0.82748
O          6.05486        -3.27553         1.72280
O         -7.65607        -2.79992         1.66631
H         -8.15058        -2.94446         2.49964
O         -8.54142        -3.29516        -1.80577
H         -8.12212        -2.98238        -2.63652
O         -2.12946        -7.86970         1.53255
O          0.47072        -0.91893         1.67598
O          6.96746        -5.64325         1.73735
H          6.38261        -5.24563         2.42170
O          7.28829        -2.59398        -1.52145
O          4.35166        -5.91988         1.65556
O          7.08137         3.73026         2.28817
H          7.19118         5.71262         2.59140
O         -2.84451        -3.33498        -1.94145
O         -7.18380         1.47690        -1.75600
O         -6.45623         4.05967        -1.90396
H         -6.57713         3.20899        -2.38758
O          4.00694         3.59336         2.25999
O         -4.23260        -5.33429         0.85863
O          5.89465         7.87410        -2.28800
H          5.49927         7.01086        -2.53554
O         -1.75757         1.41502        -1.29815
O         -4.99781         6.37325         1.82938
H         -5.28244         5.64245         2.42383
O         -3.68881        -0.15340        -2.34102
H         -2.73849        -0.07233        -2.59789
O          2.59589       -10.96800         1.04199
H          2.30523       -10.34696         1.74231
O          0.32893         5.85791         2.54257
H         -0.25014         6.52597         2.97426
O         -4.06954         0.23311         1.27636
H         -4.04791         1.02792         1.86314
O         -7.40537        -7.25338         2.02839
H         -8.07360        -6.67271         2.44530
O         -1.90171        -7.73816        -2.05979
H         -2.39355        -8.53631        -2.38580
O         -3.65293         9.12733        -2.28394
H         -4.32732         8.42796        -2.48132
O          0.02113         1.47828         1.93996
H         -0.42594         2.26795         2.31591
O         -0.10958         3.19468        -1.30284
H          0.46341         2.51836        -1.73983
H         11.94641        -1.35126        -1.05450
H         11.72725         0.99546        -1.67092
H         10.70831         3.21866        -1.14952
H          9.53848         5.45741        -0.70200
H          8.22310         7.32599        -1.36763
H          7.15868         9.82849        -0.34062
H          5.06433        11.11295        -0.19869
H          2.67971        11.19512        -0.97896
H         -0.02858        11.25943        -0.66380
H         -2.37652        11.12152        -0.97991
H         -4.94328        11.15341        -0.46264
H         -7.08377         9.96998        -0.34362
H         -8.44991         7.75354        -0.53835
H         -9.73354         5.65275        -0.37658
H        -10.88602         3.48502        -0.86891
H        -12.40086         1.11597        -0.15097
H        -12.07512        -1.22121         0.16022
H        -10.70360        -3.24401         0.85056
H         -9.31471        -5.26913         1.26190
H         -8.45997        -7.57387         0.25110
H         -7.02291        -9.78163         1.03947
H         -4.96119       -11.04242         0.80502
H         -2.48717       -11.26509        -0.51799
H         -0.05309       -11.27369        -0.36341
H          2.37308       -11.15139        -0.99957
H          5.03723       -11.27804        -0.15928
H          7.14757       -10.02500        -0.31990
H          8.39172        -7.91352        -0.57522
H          9.71449        -5.79725        -0.21474
H         10.95712        -3.51597        -0.00397
