         420
 CSIRO Nanostructure Databank - Neutral Graphene Oxide Data Set
C         28.20190        27.46947         1.39580
C         28.09320        28.83974         1.02778
C         26.85221        29.53240         1.07060
C         27.92960        31.60101         0.34860
C         26.77523        30.87237         0.75715
C         27.91646        33.06043         0.28332
C         26.68546        33.81789         0.37548
C         27.90105        35.89931         0.82277
C         26.67044        35.17394         0.49082
C         27.94710        37.38984         0.87268
C         26.83621        38.06791         1.40743
C         27.98777        40.19387         1.15937
C         26.85955        39.44435         1.55874
C         27.99946        41.63218         1.28284
C         27.07185        42.31382         2.06322
C         28.11964        44.49033         1.65720
C         27.11040        43.70507         2.24230
C         28.29583        45.83731         2.00696
C         30.60583        27.49678         0.93266
C         29.41651        26.82676         1.35401
C         30.52520        28.85201         0.54147
C         29.26069        29.53255         0.60115
C         30.33153        31.56904        -0.31686
C         29.15006        30.90039         0.23291
C         30.30910        33.10622        -0.36941
C         29.11774        33.76084         0.16611
C         30.49042        35.95343         0.50441
C         29.20291        35.14630         0.63483
C         30.25851        37.34521        -0.14348
C         29.10340        38.10505         0.49667
C         30.31875        40.29373         0.29920
C         29.12523        39.51864         0.61322
C         30.33596        41.67148         0.35987
C         28.98241        42.37563         0.40870
C         30.36522        44.60722         0.43683
C         29.06713        43.87225         0.70519
C         30.56266        45.92507         1.06967
C         29.48384        46.52739         1.71434
C         33.20305        24.79811         1.25929
C         32.00254        25.46435         1.31546
C         33.04549        27.48720         0.42568
C         31.88520        26.81704         0.89377
C         32.96233        28.86969         0.03159
C         31.71545        29.54869         0.11102
C         32.80197        31.63761        -0.63442
C         31.64322        30.91451        -0.26188
C         32.74562        33.08500        -0.78281
C         31.59913        33.80955        -0.45031
C         32.74540        35.98182        -0.46742
C         31.61370        35.23432        -0.23195
C         32.74594        37.42720        -0.26235
C         31.56557        38.10406        -0.10561
C         32.80648        40.25119         0.36834
C         31.55214        39.60485        -0.23730
C         32.83467        41.73457         0.03213
C         31.56469        42.43949         0.10719
C         32.77307        44.60548        -0.41427
C         31.56263        43.82535         0.05641
C         32.88014        45.98527         0.19742
C         31.84815        46.58655         0.90968
C         33.22173        48.59552         1.29461
C         32.04360        47.89757         1.47254
C         35.75398        23.38976         1.15564
C         35.62295        24.71767         0.66550
C         34.37458        25.42997         0.75819
C         35.45611        27.42266        -0.21447
C         34.29386        26.78440         0.33778
C         35.37339        28.83540        -0.60318
C         34.10888        29.56030        -0.46974
C         35.17088        31.64150        -1.48799
C         34.03401        30.93220        -0.77138
C         35.27186        33.11720        -1.13138
C         33.97087        33.82241        -1.14903
C         35.24352        36.02766        -0.80284
C         33.95554        35.34089        -1.00427
C         35.25722        37.40731        -0.50052
C         34.02183        38.14898        -0.30269
C         35.32937        40.20342         0.12351
C         34.05508        39.49611        -0.02207
C         35.33003        41.72485         0.10121
C         34.03864        42.43751        -0.07109
C         35.31526        44.54343        -0.32331
C         34.08232        43.85216        -0.23919
C         35.36998        45.97656        -0.30169
C         34.09171        46.78259        -0.21961
C         35.49852        48.79072         0.32363
C         34.28282        48.07437         0.53167
C         35.61481        50.17395         0.62947
C         38.08193        23.29685         0.43234
C         36.93760        22.70395         1.03765
C         37.99709        24.62668        -0.04838
C         36.75038        25.34074         0.06173
C         37.77862        27.28919        -1.19700
C         36.63667        26.68646        -0.39797
C         37.80843        28.77328        -0.93499
C         36.51343        29.49166        -1.00262
C         37.80520        31.68555        -1.38600
C         36.50964        30.90668        -1.43007
C         37.75791        33.14118        -1.09911
C         36.45520        33.82338        -1.04176
C         37.66288        35.95949        -0.64568
C         36.44402        35.27858        -0.86494
C         37.71968        37.35776        -0.47823
C         36.50583        38.09341        -0.40933
C         37.78342        40.20498        -0.35229
C         36.56662        39.49596        -0.20199
C         37.75154        41.64072        -0.46288
C         36.58022        42.38640        -0.31644
C         37.76691        44.52159        -0.65890
C         36.56442        43.81931        -0.45876
C         37.81361        45.94496        -0.60746
C         36.58063        46.66497        -0.39635
C         37.83163        48.81579        -0.44340
C         36.63880        48.11070        -0.21482
C         37.90212        50.21256        -0.20927
C         36.77346        50.86617         0.35207
C         40.49191        20.41602         0.31477
C         39.38123        21.16198         0.62187
C         40.44687        23.17756        -0.27140
C         39.30642        22.54525         0.28040
C         40.41312        24.56788        -0.62637
C         39.18231        25.27851        -0.56373
C         40.32819        27.32607        -1.25218
C         39.13524        26.64400        -0.96313
C         40.31433        28.81641        -1.57913
C         39.08637        29.50769        -1.02750
C         40.25905        31.65325        -0.91479
C         39.08652        30.98999        -1.09297
C         40.29767        33.15431        -1.05646
C         38.92778        33.77253        -0.76655
C         40.13969        35.93933        -0.07749
C         38.86300        35.17975        -0.34890
C         40.18612        37.35412        -0.42248
C         38.98518        38.06205        -0.47679
C         40.24952        40.16996        -0.83341
C         39.00118        39.49406        -0.57272
C         40.25645        41.54898        -0.94789
C         38.97784        42.28599        -0.94904
C         40.29288        44.49934        -0.98655
C         38.99120        43.80216        -1.04223
C         40.27572        45.92781        -0.88914
C         39.03921        46.62681        -0.78802
C         40.32747        48.79809        -0.80939
C         39.00995        48.10864        -1.06633
C         40.33832        50.21581        -0.70584
C         39.12573        50.94225        -0.48181
C         40.35931        53.04398        -0.63227
C         39.16885        52.35487        -0.46362
C         42.66155        20.19576        -0.83842
C         41.60507        21.00538        -0.35314
C         42.73267        23.03398        -1.22642
C         41.61227        22.41397        -0.58278
C         42.84124        24.48687        -1.27260
C         41.61618        25.22513        -1.04048
C         42.82894        27.32592        -1.51958
C         41.56313        26.62264        -1.27896
C         42.82230        28.87635        -1.30850
C         41.55189        29.54043        -1.09863
C         42.69732        31.59193        -0.39758
C         41.52567        30.92052        -0.76190
C         42.64561        32.99341         0.15811
C         41.42951        33.76740        -0.26969
C         42.73229        35.95343         0.09510
C         41.39638        35.15480         0.05778
C         42.71745        37.36702        -0.32854
C         41.46257        37.85006        -1.06308
C         42.75679        40.07332        -1.42730
C         41.39175        39.36499        -1.46532
C         42.75096        41.57834        -1.55438
C         41.46358        42.31638        -1.35485
C         42.74874        44.47196        -1.07473
C         41.48700        43.78887        -1.12515
C         42.74111        45.91161        -0.96098
C         41.52309        46.63135        -0.92892
C         42.78377        48.77862        -0.92153
C         41.53332        48.07786        -0.87898
C         42.80131        50.20494        -0.93102
C         41.57650        50.92261        -0.80170
C         42.82393        53.03637        -0.91895
C         41.58266        52.34765        -0.78192
C         43.64651        20.76393        -1.62789
C         45.59647        23.27625        -2.03100
C         43.65074        22.15537        -1.83241
C         45.39457        24.55653        -1.47809
C         44.08391        25.19046        -1.38053
C         45.28819        27.36692        -1.10834
C         44.09538        26.62067        -1.29549
C         45.24480        28.80226        -0.90485
C         44.05903        29.49710        -0.85822
C         45.22955        31.63523        -0.24235
C         43.96075        30.81746        -0.12532
C         45.18381        33.05861        -0.09844
C         43.94752        33.77036        -0.05226
C         45.18610        35.90859        -0.11046
C         43.96381        35.17110        -0.07140
C         45.17438        37.33143        -0.18580
C         43.93352        38.00030        -0.47746
C         45.21717        40.19220        -0.63166
C         44.01415        39.38998        -0.99130
C         45.22588        41.57258        -0.81869
C         44.10065        42.31218        -1.53529
C         45.19858        44.45649        -0.86989
C         43.97708        43.76563        -1.08994
C         45.20765        45.90889        -0.87124
C         43.98663        46.62330        -0.93689
C         45.24800        48.75788        -1.07407
C         44.00772        48.05370        -0.97525
C         45.26171        50.18357        -1.14468
C         44.03580        50.91598        -1.05196
C         44.00334        52.34435        -1.05226
C         47.90970        23.22472        -1.37608
C         46.82396        22.60424        -1.97566
C         47.81617        24.56640        -0.94754
C         46.57463        25.26760        -1.07491
C         47.72682        27.38929        -0.50538
C         46.53130        26.68279        -0.87652
C         47.73720        28.80427        -0.39190
C         46.54350        29.57238        -0.89265
C         47.67636        31.67412        -0.12734
C         46.44939        30.97705        -0.35111
C         47.65042        33.08294         0.03403
C         46.41261        33.78529        -0.03920
C         47.62787        35.94288         0.15043
C         46.41441        35.20853        -0.01350
C         47.61097        37.36514         0.16430
C         46.38981        38.06665        -0.08092
C         47.60952        40.21958         0.01227
C         46.39380        39.49706        -0.20184
C         47.61194        41.63576        -0.12376
C         46.41470        42.31702        -0.52152
C         47.59892        44.52417        -0.18982
C         46.39582        43.73439        -0.62715
C         47.67995        45.83862        -0.92723
C         46.43368        46.61910        -0.94573
C         47.74201        48.72408        -1.15824
C         46.47817        48.02254        -1.09200
C         47.70258        50.14648        -1.30019
C         46.52114        50.84214        -1.29577
C         50.18258        24.55818        -0.15456
C         48.98159        25.25667        -0.44277
C         50.13651        27.36220         0.11341
C         48.94319        26.66296        -0.25526
C         50.12400        28.78923         0.20693
C         48.91068        29.50930        -0.05993
C         50.10386        31.66457         0.28820
C         48.91239        30.95702         0.00449
C         50.08138        33.09633         0.41963
C         48.86086        33.80613         0.26813
C         50.03399        35.94626         0.67584
C         48.84771        35.23066         0.34892
C         50.02527        37.37713         0.70207
C         48.82767        38.08863         0.40443
C         50.02953        40.23619         0.59667
C         48.81855        39.51626         0.34314
C         50.04758        41.67578         0.42785
C         48.85135        42.36581         0.04680
C         50.12005        44.47584        -0.11803
C         48.89300        43.75928        -0.16343
C         50.18781        45.88147        -0.40035
C         48.99830        46.57228        -0.93223
C         50.21934        48.70301        -0.81529
C         48.97340        48.03992        -0.99930
C         51.32353        25.22375         0.23603
C         52.56361        27.35138         0.62848
C         51.34761        26.63915         0.34424
C         52.53696        28.75638         0.65635
C         51.32817        29.48828         0.48545
C         52.50912        31.63721         0.80332
C         51.33796        30.93916         0.51573
C         52.53525        33.09945         0.81697
C         51.25393        33.83291         0.77583
C         52.32263        35.95552         1.70121
C         51.22731        35.21657         0.95554
C         52.43974        37.42004         1.31530
C         51.24383        38.10214         0.97645
C         52.40139        40.26097         1.37112
C         51.20466        39.52908         0.93690
C         52.42116        41.77210         1.19326
C         51.24022        42.41480         0.59761
C         52.54942        44.51752         0.39806
C         51.31030        43.79314         0.27549
C         52.59527        45.90818         0.13345
C         51.38322        46.60018        -0.25412
C         51.37035        48.01639        -0.50284
C         54.97831        27.29313         1.16691
C         53.79969        26.65701         0.94175
C         55.09879        28.74714         0.99490
C         53.81008        29.49478         0.77732
C         54.99973        31.62846         1.63998
C         53.72413        30.91810         1.22040
C         55.03675        33.09569         1.57308
C         53.78571        33.81722         1.25333
C         54.96659        35.97747         1.84721
C         53.66619        35.21782         1.76694
C         54.90760        37.45786         1.78554
C         53.67505        38.13185         1.52650
C         54.88446        40.29823         1.64194
C         53.68684        39.55758         1.48557
C         54.90661        41.75199         1.43996
C         53.72628        42.44718         1.11585
C         54.98764        44.53175         0.82990
C         53.75322        43.82650         0.77169
C         55.00524        45.92733         0.54617
C         53.84604        46.59094         0.22405
C         56.26878        29.49144         1.52612
C         56.24923        30.82267         1.71787
C         56.21958        33.85884         1.57216
C         56.20200        35.24490         1.54289
C         56.07433        38.20084         1.99380
C         56.07479        39.58974         1.91014
C         56.12957        42.47998         1.46708
C         56.16748        43.82982         1.18903
O         54.01222        31.13096         2.65024
O         29.23903        44.63478        -0.53495
O         48.45574        45.87642        -2.14538
O         37.26432        31.20147        -2.66817
O         44.57121        22.66032        -2.76547
O         54.71643        29.24572        -0.34765
O         43.66020        39.48762        -2.42299
O         38.80216        42.98206        -2.24825
O         33.80453        34.71089        -2.31453
O         35.41682        41.00363         1.38479
O         28.61145        35.30406         1.97884
O         41.00453        39.38718        -2.86788
O         42.04653        35.56684         1.33471
O         53.48211        33.69078        -0.19120
O         42.88080        28.24486        -2.65644
O         52.14693        41.17407         2.50811
O         54.29190        35.39620         3.06403
O         30.05704        32.28912        -1.55843
O         38.60495        29.05149         0.28453
O         39.27530        35.52289         1.03539
O         51.81292        35.98910         3.07470
H         52.60447        36.05178         3.66168
O         38.80284        48.21919        -2.52640
H         39.52200        47.71529        -2.96387
O         32.70367        40.15780         1.81625
H         33.57092        40.46141         2.17456
O         46.82574        29.78033        -2.33150
H         46.86469        28.89574        -2.75432
O         42.54923        32.84665         1.63755
H         42.40171        33.76234         1.98689
O         28.45396        42.24112        -0.94824
H         28.69517        43.07615        -1.41814
O         44.54630        42.38454        -2.91954
H         43.73808        42.47768        -3.47329
O         37.46070        27.09310        -2.60226
H         37.43448        26.12986        -2.77876
O         34.74504        31.63662        -2.87926
H         35.55842        31.73746        -3.42609
O         32.58675        44.77085        -1.86352
H         33.13384        45.55151        -2.13542
O         41.54989        37.05861        -2.28280
H         41.45862        37.69337        -3.03822
O         43.87457        30.43731         1.29815
H         43.47963        31.20968         1.77514
O         31.00071        36.18509         1.83713
H         30.24114        36.06482         2.45696
O         33.81742        47.19546        -1.63415
H         33.06650        47.82742        -1.60597
O         47.35050        44.91659         1.21267
H         47.29927        44.09505         1.74605
O         40.56104        33.44694        -2.47144
H         39.95863        32.89255        -3.01280
O         31.55432        39.84272        -1.68083
H         31.37440        40.79606        -1.83319
O         41.95202        41.96469        -2.73469
H         41.22315        40.29200        -3.20930
O         40.26108        28.97236        -3.02359
H         41.13663        28.67176        -3.36970
O         29.91086        37.13630        -1.53725
H         30.15514        37.95036        -2.03048
H         27.30152        26.92858         1.72103
H         25.95013        28.98858         1.38647
H         25.80839        31.38675         0.84350
H         25.73596        33.29003         0.20635
H         25.73273        35.73378         0.36426
H         25.94739        37.49865         1.71261
H         25.97255        39.95085         1.96132
H         26.31237        41.74987         2.62279
H         26.38922        44.18299         2.92046
H         27.53568        46.32764         2.63205
H         29.45804        25.77060         1.65007
H         29.57647        47.54938         2.10461
H         33.23737        23.75324         1.59292
H         31.12548        24.92661         1.69707
H         33.33587        49.56823         1.79326
H         31.25559        48.35293         2.08398
H         34.90622        22.89255         1.64369
H         34.75772        50.71635         1.05084
H         36.99255        21.68299         1.43580
H         36.81707        51.93959         0.57966
H         40.51642        19.34000         0.53925
H         38.52737        20.66316         1.09766
H         40.36328        54.14344        -0.63206
H         38.24178        52.92915        -0.33220
H         42.64289        19.11223        -0.65601
H         42.82633        54.13597        -0.91321
H         44.41526        20.14663        -2.11043
H         44.93853        52.91155        -1.14924
H         48.86331        22.68540        -1.31923
H         46.91561        21.60328        -2.41586
H         48.64102        50.70510        -1.41570
H         46.55607        51.93396        -1.40554
H         50.21878        23.46441        -0.23984
H         50.27610        49.79551        -0.91611
H         52.23066        24.63874         0.43502
H         52.29819        48.59183        -0.38945
H         55.85863        26.72615         1.50433
H         53.76973        25.56575         1.06539
H         55.95948        46.47116         0.59584
H         53.89693        47.66784         0.01722
H         57.19980        28.92691         1.68960
H         57.16580        31.33303         2.04893
H         57.19130        33.34415         1.53784
H         57.13967        35.79798         1.39890
H         57.01448        37.68176         2.22493
H         57.02120        40.12139         2.06844
H         57.06842        41.97224         1.72326
H         57.12104        44.37507         1.23617
