         272
 CSIRO Nanostructure Databank - Neutral Graphene Oxide Data Set
C        -11.07292         0.78792         0.69860
C        -10.04428         1.57253        -0.02680
C         -8.91108         0.78153        -0.60485
C         -7.63027         1.50381        -0.90589
C         -6.34730         0.73640        -0.95001
C         -5.02964         1.47852        -0.98452
C         -3.76114         0.79851        -0.67753
C         -2.60133         1.52808        -0.48500
C         -1.29973         0.80825        -0.46453
C         -0.10388         1.52915         0.09174
C          1.14977         0.76073         0.32649
C          2.45945         1.46236         0.56396
C          3.75143         0.71093         0.39800
C          5.08669         1.38659         0.51791
C          6.20246         0.41466         0.97572
C          7.46454         1.16670         1.38197
C          8.74484         0.39172         1.27232
C         10.04871         1.14200         1.11036
C         11.19868         0.32152         0.61333
C         -9.86706         3.03082         0.20540
C         -8.79144         3.74032        -0.25290
C         -7.58704         3.03927        -0.83915
C         -6.30557         3.50719        -0.12850
C         -5.05587         2.97185        -0.80872
C         -3.76209         3.65888        -0.62518
C         -2.57687         2.98096        -0.51603
C         -1.33576         3.75564        -0.15831
C         -0.06340         3.02894         0.13783
C          1.24352         3.73295         0.14240
C          2.41331         2.97866         0.76649
C          3.76646         3.62529         0.52248
C          5.06132         2.85729         0.75066
C          6.17410         3.51460         1.54312
C          7.50136         2.69712         1.44994
C          8.75753         3.30837         0.93257
C          9.91208         2.58577         0.81570
C         -8.72255         5.19956        -0.25238
C         -7.56172         5.94658        -0.18422
C         -6.27169         5.30362         0.36942
C         -5.00012         5.88738        -0.29496
C         -3.79821         5.11479        -0.78997
C         -2.50757         5.85890        -0.99735
C         -1.19316         5.20478        -0.54026
C          0.00584         5.90819        -0.01579
C          1.20177         5.13327         0.23168
C          2.50892         5.92809         0.30708
C          3.78955         5.11077         0.54692
C          4.95853         5.79671         1.25380
C          6.28841         5.00455         1.18591
C          7.51935         5.56251         0.50398
C          8.71195         4.65049         0.19686
C         -7.55985         7.36338        -0.51123
C         -6.57425         8.27252        -0.16999
C         -4.71743         7.28878         0.02753
C         -3.70727         8.02007        -0.59318
C         -2.66706         7.29759        -1.22608
C         -1.16046         8.26445         0.52281
C          0.03964         7.33383         0.30316
C          1.17218         7.88963         0.84916
C          2.46666         7.20627         1.14417
C          3.72305         8.03842         0.76390
C          5.03888         7.27145         0.83959
C          6.26657         7.74163         0.03805
C          7.31181         6.77914        -0.28471
C         -6.27630         9.57184        -0.74492
C         -5.02334        10.14022        -0.79444
C         -3.73825         9.49064        -0.57793
C         -2.54477        10.18635        -0.50365
C         -1.24106         9.61520        -0.18873
C         -0.09703        10.31550        -0.51123
C          1.20636         9.89502        -0.01769
C          2.41521         9.89981        -0.64957
C          3.66997         9.30542        -0.09496
C          4.89412         9.60941        -0.88516
C          6.04572         8.90977        -0.84229
C        -11.09522        -0.56329         0.73875
C        -10.10471        -1.43477         0.05488
C         -8.92224        -0.73728        -0.56232
C         -7.62120        -1.52704        -0.78758
C         -6.37804        -0.68621        -0.48903
C         -5.08984        -1.39900        -0.28567
C         -3.79285        -0.64745        -0.31556
C         -2.52927        -1.44812        -0.27743
C         -1.26647        -0.68553        -0.55355
C          0.00639        -1.45046        -0.35393
C          1.21731        -0.76873         0.28744
C          2.44826        -1.34074        -0.50077
C          3.79130        -0.62912        -0.27894
C          5.11205        -1.32382        -0.49192
C          6.44230        -0.55210        -0.24610
C          7.67804        -1.47784        -0.20498
C          8.79755        -0.97478         0.64475
C          9.97249        -1.83597         1.07593
C         11.19574        -1.02910         0.62107
C         -9.99146        -2.88421         0.40954
C         -8.84114        -3.58704         0.26640
C         -7.57177        -2.86652        -0.00059
C         -6.26998        -3.63320        -0.04099
C         -5.08203        -2.88546        -0.65344
C         -3.76782        -3.60015        -0.44684
C         -2.58027        -2.93942        -0.41817
C         -1.29217        -3.72178        -0.69251
C         -0.00859        -2.95118        -0.36832
C          1.27176        -3.64797         0.09536
C          2.53282        -2.85031        -0.15450
C          3.84472        -3.58437        -0.32974
C          5.08501        -2.82648        -0.74590
C          6.34428        -3.61985        -0.98516
C          7.72888        -2.93464        -0.83565
C          8.77883        -3.78461        -0.10116
C          9.83601        -3.25060         0.55231
C         -8.70700        -5.03220         0.74699
C         -7.49162        -5.80753         0.22477
C         -6.30441        -5.10557        -0.15404
C         -5.14039        -5.81639        -0.66569
C         -3.79360        -5.07280        -0.84832
C         -2.63690        -5.82559        -0.19135
C         -1.32286        -5.08590        -0.05045
C         -0.04610        -5.83112         0.18405
C          1.33503        -5.17678         0.25562
C          2.45575        -5.77754        -0.58264
C          3.79944        -5.07863        -0.42899
C          5.04592        -5.85792        -0.73180
C          6.31912        -5.15856        -1.21979
C          7.52390        -5.95476        -0.74829
C          8.85532        -5.25348        -0.51548
C         -7.53141        -7.18558         0.26678
C         -6.45056        -8.11387        -0.25058
C         -5.13993        -7.38946        -0.58379
C         -3.86789        -8.08767        -0.38755
C         -2.61862        -7.30787        -0.18448
C         -1.29167        -8.01106        -0.37116
C         -0.02667        -7.35214         0.22217
C          1.03020        -7.99452        -0.73399
C          2.35246        -7.22816        -0.94322
C          3.62559        -8.01719        -1.11739
C          4.95469        -7.32694        -0.93398
C          6.23018        -8.07374        -1.33389
C          7.44780        -7.30516        -0.80506
C         -6.23372        -9.34721         0.59359
C         -5.04653        -9.98302         0.66498
C         -3.80639        -9.38576         0.17763
C         -2.56712       -10.05608         0.33503
C         -1.31180        -9.47084         0.01720
C         -0.07849       -10.12296         0.03146
C          1.15911        -9.45827        -0.32448
C          2.36388       -10.11654        -0.35407
C          3.62444        -9.49004        -0.81582
C          4.95213       -10.09221        -0.50396
C          6.12176        -9.47785        -0.76237
O         -0.96835         3.51182         1.22997
O          7.50778         1.86454         2.65273
O        -10.00355        -1.23681        -1.40680
O         -3.54260        -5.04359        -2.27640
H         -3.92201        -5.87386        -2.65643
O          2.20424         3.04709         2.26242
O         -1.07668        -7.91957        -1.82293
O          2.01808        -3.08145         1.18544
O         -1.55380         5.32463        -1.98966
O         -7.45118         3.46776        -2.28920
H         -6.70070         2.83396        -2.63141
O          5.18420        -6.78391         0.40611
O         -5.10208         2.39855        -2.16460
O         -0.80824        -5.21208         1.28684
O          4.05085        -4.41505         0.85695
O          8.80641        -0.76176        -0.80231
O          0.38145        -7.98158        -2.04961
O          5.72876         3.46533         2.90573
H          6.42208         3.86323         3.47271
O          0.27724        -2.19018        -1.57350
O         -5.86767        -0.88180         0.84634
O          5.49016         2.29680        -0.52627
O          4.64118         5.80661         2.65807
H          5.37079         6.28560         3.10744
O         -9.96086         1.29229        -1.50441
O          6.31000        -5.32076        -2.66968
H          6.87834        -4.60735        -3.04355
O         -6.74495        -3.03670         1.20303
O          2.03537         4.42020         2.63728
H          1.10546         4.44398         2.97299
O          1.11685         9.24052         1.24040
O          0.19260        -7.78226         1.56099
H          0.48905        -7.00294         2.08644
O          8.24244        -2.87493        -2.13088
O         -1.81738         7.84352        -2.08734
H         -1.27228         7.09274        -2.44971
O          9.65294        -5.99897         0.40164
H          9.18817        -6.03174         1.26267
O         -6.24981         5.29984         1.67500
O         -1.99503         7.93802         1.34776
O         -5.23749        -2.89158        -2.09850
H         -4.69445        -3.63085        -2.47743
O         -4.83679         5.58980        -1.72385
O          4.01669         4.39401        -0.70779
O         -6.99436        -8.62941        -1.50820
H         -6.79792        -7.94711        -2.19104
O          5.74533        -0.38870         2.06634
H          5.75317         0.15894         2.88148
O          6.08506         8.00168         1.49276
O         -3.10259        -0.93294         0.96429
O          2.17578        -6.15863        -1.94590
O         10.01461        -1.98172         2.51057
H         10.06070        -1.07200         2.89556
O         -5.34581        -6.67771        -1.85645
O          4.46790        -0.58869        -1.57066
O          1.15683        -1.09064         1.67943
H          1.77152        -0.49510         2.16804
O          5.55778        -3.05261        -2.09430
O         -7.10885         0.98028        -2.17808
O          3.10352         0.75755         1.70147
O          9.59795         0.63745         2.42142
O         -9.91082        -5.75207         0.49580
H        -10.00199        -5.88418        -0.46981
O          0.22279         1.07708         1.43315
O          2.46420         6.97458         2.55640
H          2.52526         7.84878         2.99629
O          6.35873        -8.15512        -2.76215
H          6.38294        -7.22764        -3.10129
O          3.81358         9.34802         1.36557
O          8.74239         4.35186        -1.20277
H          8.99867         5.15471        -1.69871
O         -1.15643         0.12366        -1.76836
O          2.16605        -1.06612        -1.87810
H          3.01241        -1.10908        -2.38415
O          7.30678         5.68555         1.96478
O         -6.33586         2.87915         1.14856
H         -6.31891         3.65210         1.81039
O         -2.88541        -6.53931         1.05382
O          6.66438         0.30853        -1.35874
H          7.02237        -0.22661        -2.09827
O         -5.63173         7.91862         0.84654
O          1.72877        -5.49727         1.61488
H          2.34594        -4.78214         1.91535
O          3.56704        -8.96390        -2.20561
O          2.66402         6.47715        -1.04203
H          2.92861         5.72033        -1.61750
O         -1.25949        -4.01316        -2.10416
H         -0.88942        -3.22442        -2.56635
O         -7.59590        -1.86548        -2.18100
H         -8.52859        -1.92119        -2.49104
O         -8.65211         3.16713        -3.01178
H         -9.11898         2.41447        -2.50179
H         12.09342        -1.57064         0.28479
H         12.09323         0.86304         0.26589
H         10.76317         3.05957         0.29968
H          9.64446         5.22695         0.46121
H          7.83574         6.88206        -1.24623
H          6.86809         9.19042        -1.51832
H          4.81696        10.44254        -1.60142
H          2.49075        10.35805        -1.64669
H         -0.17229        11.22573        -1.12795
H         -2.57503        11.28001        -0.63858
H         -4.96785        11.18893        -1.13010
H         -7.12224        10.16385        -1.12984
H         -8.33741         7.70779        -1.21306
H         -9.68941         5.72525        -0.32033
H        -10.69987         3.57084         0.67942
H        -11.82606         1.35520         1.26600
H        -11.86939        -1.06306         1.34086
H        -10.90720        -3.40172         0.73598
H         -8.59773        -4.97822         1.86562
H         -8.48587        -7.66372         0.53835
H         -7.12933        -9.80966         1.03473
H         -4.96691       -10.93618         1.20957
H         -2.58535       -11.09485         0.70050
H         -0.03241       -11.19126         0.29590
H          2.40351       -11.17460        -0.04852
H          4.95227       -11.10601        -0.07314
H          7.06188       -10.00717        -0.54015
H          8.34924        -7.89180        -0.56166
H          9.39811        -5.27235        -1.50156
H         10.60968        -3.95371         0.90729
