         420
 CSIRO Nanostructure Databank - Neutral Graphene Oxide Data Set
C         28.20163        27.57214         0.86008
C         28.03836        28.67958        -0.00170
C         26.82969        29.47654        -0.11860
C         27.95919        31.67089        -0.61082
C         26.80132        30.81919        -0.40011
C         27.97533        33.09383        -0.33921
C         26.79847        33.79045         0.10544
C         27.92998        35.96166         0.02580
C         26.80109        35.14858         0.32260
C         27.93893        37.35556         0.21743
C         26.77470        38.07984         0.64991
C         27.91507        40.24255         0.43100
C         26.76605        39.44187         0.75907
C         27.87666        41.64182         0.50057
C         26.81936        42.36648         1.16902
C         27.69128        44.63362         0.48550
C         26.78500        43.71915         1.27840
C         27.90047        45.98569         1.11009
C         30.61740        27.49442         0.38072
C         29.44855        26.95610         0.96827
C         30.49542        28.66231        -0.39575
C         29.19133        29.06462        -0.71130
C         30.43493        31.72351        -1.00449
C         29.13926        31.13361        -1.12644
C         30.41616        33.15704        -0.78728
C         29.16287        33.81559        -0.54010
C         30.40992        36.01553        -0.44272
C         29.09686        35.31685        -0.68541
C         30.38908        37.42021        -0.22644
C         29.14816        38.11275        -0.00264
C         30.35312        40.24476        -0.07881
C         29.13775        39.52898         0.07849
C         30.33307        41.71040        -0.18720
C         29.02317        42.43294        -0.01106
C         30.30705        44.64124         0.32816
C         29.01051        43.93403         0.10618
C         30.32152        45.97459         0.66814
C         29.07309        46.64239         1.03366
C         32.87617        24.77274        -0.82293
C         31.80178        25.43031        -0.34191
C         33.17152        27.54683         0.08782
C         31.92082        26.71135         0.46305
C         32.97390        28.77689        -0.79868
C         31.64694        29.44341        -0.96269
C         32.88037        31.65707        -1.06537
C         31.63274        30.95460        -1.06221
C         32.85186        33.14549        -1.15444
C         31.61369        33.88851        -0.85812
C         32.86729        36.03382        -0.53430
C         31.63255        35.31971        -0.63518
C         32.85906        37.45173        -0.27595
C         31.61238        38.14857        -0.17642
C         32.84004        40.29908         0.04036
C         31.60020        39.57297        -0.09351
C         32.86925        41.70464         0.18925
C         31.61986        42.46398        -0.01553
C         32.85702        44.57609         0.50566
C         31.55249        43.82813         0.62539
C         32.84006        45.99188         0.61858
C         31.59624        46.69743         0.75725
C         32.85045        48.78141         0.91011
C         31.63292        48.08345         0.90921
C         35.36096        23.32148        -1.73182
C         35.38653        24.65401        -1.24807
C         34.20763        25.37109        -0.82733
C         35.48671        27.45436        -0.82685
C         34.29850        26.72741        -0.52208
C         35.43380        28.89781        -0.93122
C         34.22426        29.57417        -0.91489
C         35.38529        31.74690        -0.91445
C         34.14002        31.00774        -1.04390
C         35.38940        33.15071        -0.69812
C         34.16018        33.90948        -0.96225
C         35.32354        35.99412        -0.35079
C         34.12023        35.33778        -0.58546
C         35.36017        37.49513        -0.43103
C         34.06198        38.16853        -0.11352
C         35.28077        40.28164         0.38439
C         34.07246        39.57649         0.11704
C         35.30374        41.69041         0.49651
C         34.07263        42.41213         0.39116
C         35.32018        44.56636         0.55608
C         34.06956        43.86282         0.48142
C         35.31878        45.97953         0.59249
C         34.07876        46.70437         0.63068
C         35.35448        48.90021         0.84525
C         34.06411        48.12100         0.75280
C         35.30534        50.23436         0.14708
C         37.76703        23.39896        -2.07014
C         36.52260        22.74286        -2.21485
C         37.89166        24.64267        -1.45172
C         36.65048        25.32736        -1.19617
C         37.97190        27.41183        -1.19320
C         36.66633        26.73651        -1.08385
C         37.97259        28.90508        -1.20729
C         36.65075        29.65451        -1.42207
C         37.80790        31.71302        -0.50555
C         36.62503        31.06089        -0.88602
C         37.78306        33.09889        -0.15548
C         36.56426        33.82384        -0.31272
C         37.73131        35.96478         0.09617
C         36.55804        35.27480        -0.18822
C         37.73040        37.40288         0.25641
C         36.54662        38.11314         0.22825
C         37.79830        40.26338         0.61860
C         36.50493        39.50178         0.78045
C         37.77307        41.65275         0.76992
C         36.54982        42.39932         0.69310
C         37.78940        44.55493         0.73374
C         36.56925        43.83765         0.66833
C         37.80886        45.97378         0.57847
C         36.56774        46.70203         0.54169
C         37.77338        48.80111         0.12527
C         36.57821        48.10610         0.45272
C         37.73236        50.19796        -0.19425
C         36.43734        50.85148        -0.25061
C         41.25598        20.34306        -1.65522
C         40.21641        21.01115        -2.30325
C         40.60842        23.09077        -0.99244
C         39.88292        22.32342        -1.95736
C         40.34382        24.49471        -0.65475
C         39.16772        25.25142        -1.02436
C         40.28216        27.34099        -0.22829
C         39.15920        26.63220        -0.75451
C         40.21990        28.78439        -0.11638
C         39.10259        29.56531        -0.52570
C         40.12035        31.62399         0.32752
C         39.02697        30.95969        -0.29393
C         40.19129        33.07861         0.39951
C         38.99126        33.77180         0.21463
C         40.23466        35.92633         0.11239
C         38.96664        35.23691         0.55125
C         40.16274        37.37033        -0.13119
C         38.97845        38.12131         0.30463
C         40.27540        40.22237         0.29187
C         39.01806        39.52410         0.41697
C         40.33595        41.63376         0.72239
C         39.05154        42.35585         1.04161
C         40.36899        44.55692         0.93660
C         39.02414        43.86449         1.28593
C         40.33488        46.02617         0.58907
C         39.02696        46.70098         0.45978
C         40.22457        48.72858        -0.28787
C         39.01773        48.07218         0.10890
C         40.13543        50.09985        -0.77455
C         38.91102        50.88588        -0.57475
C         40.16915        52.98584        -0.88577
C         38.97067        52.28768        -0.78732
C         43.02677        20.32685         0.06481
C         42.03600        21.03884        -0.73359
C         42.61852        23.07518         0.48761
C         41.76625        22.42102        -0.46184
C         42.21196        24.32942         0.89856
C         41.29191        25.16540         0.18608
C         42.57120        27.36266         0.76859
C         41.38152        26.61347         0.31503
C         42.53859        28.76616         0.81739
C         41.29408        29.44438         0.54741
C         42.92113        31.86939         0.92721
C         41.09938        30.79749         0.88841
C         42.71708        33.19253         0.39752
C         41.46447        33.81082         0.36425
C         42.68489        35.95963        -0.16164
C         41.43171        35.24141         0.04976
C         42.71654        37.36914        -0.22575
C         41.46518        38.13025        -0.31524
C         42.72935        40.24951        -0.00876
C         41.47006        39.56471         0.00448
C         42.74790        41.67853         0.08327
C         41.56589        42.39926         0.41682
C         42.75141        44.51432         0.11815
C         41.56824        43.79924         0.48351
C         42.74301        45.95697        -0.04089
C         41.53589        46.67213         0.02045
C         42.71699        48.77950        -0.49033
C         41.48183        48.05916        -0.30454
C         42.73273        50.18995        -0.63574
C         41.48786        50.89253        -0.94338
C         42.64404        53.03477        -0.61063
C         41.42780        52.34487        -0.81979
C         43.90931        20.97370         0.85109
C         44.94394        23.12359         1.82201
C         44.01775        22.46977         0.72794
C         45.07744        24.60495         1.51783
C         43.98181        25.39264         1.56343
C         45.07977        27.40348         0.93437
C         43.87955        26.74622         1.05719
C         45.11889        28.86121         0.89919
C         43.80712        29.57485         0.98446
C         45.03309        31.52595        -0.28550
C         43.89099        31.00326         0.54560
C         45.07103        33.04601        -0.28051
C         43.93182        33.81503        -0.09597
C         45.12602        35.95506        -0.43206
C         43.92132        35.25410        -0.25728
C         45.16990        37.37372        -0.33412
C         43.93968        38.08685        -0.22533
C         45.18717        40.22031        -0.23951
C         43.94385        39.52514        -0.17764
C         45.19990        41.64579        -0.29991
C         43.96178        42.38156        -0.16406
C         45.13917        44.52324        -0.60816
C         43.93004        43.79451        -0.19743
C         45.20070        45.97314        -0.42120
C         43.96941        46.66781        -0.28463
C         45.19999        48.80053        -0.44479
C         43.96103        48.08431        -0.39291
C         45.19386        50.22771        -0.44869
C         43.93250        50.93733        -0.52102
C         43.85261        52.36003        -0.51716
C         47.48123        23.10747         1.59496
C         46.30468        22.47019         1.83302
C         47.59352        24.50425         1.25247
C         46.31416        25.22221         0.90288
C         47.61252        27.38150         0.77244
C         46.36755        26.69799         1.29806
C         47.60137        28.77445         0.49627
C         46.36989        29.54100         0.47561
C         47.59639        31.58066        -0.12618
C         46.35720        30.85857         0.06148
C         47.58788        32.94415        -0.42255
C         46.33203        33.68282        -0.69112
C         47.62873        35.94833        -0.57007
C         46.36415        35.22291        -0.72005
C         47.65334        37.33621        -0.43603
C         46.41635        38.07335        -0.35611
C         47.66406        40.20040        -0.21789
C         46.42737        39.49733        -0.27954
C         47.67191        41.62941        -0.25133
C         46.43974        42.32011        -0.39095
C         47.70913        44.51337        -0.48441
C         46.46610        43.75763        -0.67222
C         47.68696        45.92024        -0.48713
C         46.43658        46.65009        -0.48833
C         47.67369        48.79535        -0.43469
C         46.44028        48.08542        -0.44507
C         47.63416        50.20969        -0.41626
C         46.43559        50.90321        -0.42457
C         50.07537        24.53140         1.19381
C         48.79855        25.19344         1.09867
C         50.04784        27.24843         0.45517
C         48.81510        26.62088         0.77107
C         50.02358        28.64014        -0.01342
C         48.80649        29.44068         0.14579
C         50.10178        31.53116        -0.08037
C         48.84949        30.84793        -0.02250
C         50.11777        32.99849         0.00104
C         48.81328        33.72966        -0.23071
C         50.17960        35.88592        -0.49957
C         48.87504        35.16560        -0.65560
C         50.14930        37.35358        -0.31427
C         48.91485        38.05407        -0.35627
C         50.13918        40.16763        -0.11558
C         48.90961        39.46977        -0.20972
C         50.14179        41.63625         0.24303
C         48.89911        42.36997        -0.19695
C         50.17753        44.50025        -0.24519
C         48.92265        43.77491        -0.28575
C         50.17166        45.92506        -0.34936
C         48.93107        46.64589        -0.41362
C         50.17494        48.74487        -0.41258
C         48.92718        48.06353        -0.42269
C         51.25098        25.17106         0.92976
C         52.53742        27.25556         0.44415
C         51.29568        26.56362         0.55483
C         52.58268        28.67948         0.28342
C         51.36649        29.39158        -0.13077
C         52.57298        31.55338         0.08342
C         51.33983        30.85632        -0.04270
C         52.60520        32.99098        -0.00097
C         51.40139        33.71712        -0.13125
C         52.62358        35.82576        -0.03239
C         51.41783        35.13232        -0.16695
C         52.60436        37.29891         0.29085
C         51.35837        38.04502        -0.14872
C         52.62537        40.19730        -0.23395
C         51.34672        39.45884        -0.12830
C         52.63064        41.67075        -0.09644
C         51.43074        42.36253        -0.07416
C         52.65083        44.50263        -0.28717
C         51.40974        43.79578        -0.17771
C         52.65621        45.92353        -0.37840
C         51.41003        46.63908        -0.37449
C         51.36883        48.06019        -0.40639
C         54.97714        27.24192         0.70090
C         53.81560        26.56974         0.52988
C         54.98838        28.71540         1.00580
C         53.75996        29.41063         0.47018
C         55.04296        31.52215         0.25887
C         53.79516        30.83105         0.26913
C         55.07804        32.95376         0.15082
C         53.85035        33.68721         0.04704
C         55.10291        35.82914         0.04273
C         53.85826        35.11571         0.03486
C         55.09222        37.28523        -0.07757
C         53.90602        37.97810        -0.02530
C         55.17471        40.17932         0.21877
C         53.91501        39.45193        -0.20313
C         55.13649        41.65829        -0.13791
C         53.89844        42.35572        -0.18349
C         55.12069        44.48870        -0.38287
C         53.88709        43.78014        -0.28558
C         55.09879        45.91414        -0.48563
C         53.91223        46.60105        -0.47967
C         56.25246        29.41304         0.59176
C         56.25843        30.73391         0.29884
C         56.28629        33.69524         0.19404
C         56.29480        35.08461         0.12481
C         56.32101        38.04290        -0.34308
C         56.37360        39.38880        -0.26733
C         56.33463        42.38758        -0.22267
C         56.33493        43.77099        -0.36484
O         28.80068        43.28074        -1.20030
O         50.70174        28.84087        -1.30525
O         39.84256        41.73713         2.12378
O         38.30871        28.15553        -2.43731
O         40.67205        45.55069         1.96089
O         45.71057        44.09753        -1.89003
O         53.35973        39.83764        -1.49648
O         41.95593        31.38605         1.82518
O         31.07522        42.26141        -1.34008
O         44.58375        29.36130         2.21972
O         32.27297        28.68053        -2.06912
O         33.59867        33.67904        -2.30481
O         46.29765        34.40494        -1.96681
O         40.63763        37.77397        -1.47253
O         49.68775        35.45353        -1.84038
O         40.76248        50.32564        -2.07133
O         29.04849        29.91697        -1.81302
O         49.33132        33.54207         1.14210
O         38.84623        22.82082        -2.73482
O         42.77307        24.87155         2.06403
O         44.76985        31.15245        -1.68176
H         45.37382        31.67379        -2.25326
O         26.95074        44.91996        -0.73690
H         27.26550        44.25941        -1.40229
O         28.82221        35.54241        -2.13128
H         29.55591        35.12594        -2.63316
O         44.35096        22.90152         3.11132
H         43.58337        23.51431         3.18866
O         35.52356        49.19830         2.27942
H         36.38693        49.65224         2.38241
O         52.50451        37.34888         1.77006
H         53.32653        36.95768         2.13633
O         36.45818        29.81048        -2.85776
H         36.97668        29.08880        -3.28909
O         44.72273        22.73918        -0.53272
H         44.23935        22.27147        -1.24773
O         50.06662        41.64294         1.72308
H         50.06525        42.58089         2.01068
O         36.37082        39.31534         2.25308
H         36.58047        40.17624         2.67620
O         38.93459        35.31891         2.02651
H         39.66317        34.75662         2.36747
O         32.12346        26.26734         1.83794
H         31.50018        25.53371         2.01914
O         38.83496        44.01558         2.71723
H         39.47004        43.40098         3.15053
O         35.57144        37.76789        -1.88591
H         34.88739        37.26300        -2.37785
O         46.45527        26.75296         2.75175
H         46.19643        27.65655         3.03566
O         55.18797        40.12326         1.68060
H         55.98937        40.59292         1.99302
O         54.92672        28.82658         2.48054
H         54.12434        28.34278         2.77092
O         31.40840        43.50510         2.06347
H         31.54014        44.33542         2.56988
O         46.17213        25.16184        -0.54237
H         45.81568        24.26535        -0.76184
O         33.69200        28.12910         1.31015
H         33.53271        27.47486         2.02843
H         27.34517        27.18256         1.42819
H         25.88216        28.99493         0.17017
H         25.82193        31.31646        -0.32489
H         25.88879        33.21686         0.32747
H         25.89776        35.60928         0.74629
H         25.84865        37.53126         0.86863
H         25.83342        39.94046         1.05563
H         26.04237        41.78381         1.68586
H         25.95847        44.18830         1.83389
H         27.00526        46.50188         1.48830
H         29.53663        26.04925         1.58517
H         29.12539        47.67345         1.41019
H         32.73745        23.78863        -1.29413
H         30.80624        24.96200        -0.39174
H         32.82924        49.87018         1.05343
H         30.70555        48.66039         1.01745
H         34.41277        22.77159        -1.80109
H         34.34281        50.75741         0.05468
H         36.49757        21.75478        -2.69266
H         36.37423        51.85661        -0.69073
H         41.46104        19.28531        -1.87008
H         39.61745        20.50415        -3.07028
H         40.14098        54.08494        -0.92057
H         38.04107        52.87266        -0.75673
H         42.98732        19.22692         0.05217
H         42.62889        54.13250        -0.54510
H         44.60336        20.41706         1.49559
H         44.76998        52.95199        -0.39906
H         48.40705        22.52130         1.70406
H         46.34089        21.41168         2.13275
H         48.56672        50.78871        -0.40148
H         46.46531        52.00099        -0.42034
H         50.10499        23.46823         1.46923
H         50.20323        49.84210        -0.42360
H         52.19017        24.60864         1.01926
H         52.30208        48.63796        -0.41313
H         55.93183        26.69589         0.73656
H         53.84209        25.47867         0.39625
H         56.05206        46.45592        -0.56814
H         53.93745        47.69552        -0.56244
H         57.19383        28.84370         0.61043
H         57.21388        31.22349         0.06115
H         57.24749        33.17224         0.28711
H         57.26193        35.60560         0.15213
H         57.22075        37.48636        -0.64406
H         57.32047        39.90381        -0.48761
H         57.29949        41.86313        -0.17150
H         57.28686        44.31585        -0.43869
