         424
 CSIRO Nanostructure Databank - Neutral Graphene Oxide Data Set
C          1.25467         2.05259        -0.99552
C          1.22774         3.46474        -1.05398
C          2.44292         1.37406        -0.83752
C          2.39724         4.21967        -0.97947
C          1.15013         6.38279        -0.77931
C          1.11861         7.75756        -0.65568
C          2.37496         5.68122        -0.90782
C          2.31521         8.51607        -0.57345
C          1.12197        10.71142        -0.57288
C          1.13149        12.10092        -0.48365
C          2.28393         9.94350        -0.40369
C          2.34356        12.84198        -0.32277
C          1.14377        15.06226        -0.45668
C          1.15459        16.40080        -0.66016
C          2.36275        14.27348        -0.42918
C          2.41897        17.11420        -1.06022
C          2.43668        18.58400        -0.73490
C          3.67682         2.09012        -0.77748
C          3.65853         3.52705        -0.88131
C          4.90078         1.41467        -0.65403
C          4.87392         4.23659        -0.89068
C          3.58179         6.42362        -0.89521
C          3.56491         7.82233        -0.69334
C          4.86275         5.70018        -1.25336
C          4.80595         8.58742        -0.57585
C          3.50792        10.63175         0.13584
C          3.56083        12.12533        -0.13834
C          4.79077         9.90547        -0.21123
C          4.78937        12.81959        -0.07919
C          3.60339        14.97024        -0.40970
C          3.64698        16.39288        -0.56307
C          4.82028        14.24986        -0.19951
C          4.84401        17.09649        -0.39261
C          3.58939        19.24182        -0.50097
C          4.86791        18.54640        -0.41458
C          6.12495         2.11731        -0.62999
C          6.10958         3.55475        -0.75740
C          7.36158         1.43684        -0.51794
C          7.34779         4.26805        -0.74341
C          6.11989         6.41688        -0.84966
C          6.10163         7.91472        -1.00681
C          7.33121         5.72166        -0.78782
C          7.34009         8.56082        -0.45827
C          6.04319        10.62152         0.22906
C          6.04059        12.11680         0.00196
C          7.32663         9.94602        -0.17990
C          7.23243        12.81804         0.03778
C          6.04893        14.95990        -0.09137
C          6.06810        16.38958        -0.15869
C          7.27079        14.24726         0.06782
C          7.28751        17.09593        -0.03248
C          6.06035        19.22560        -0.27400
C          7.31020        18.53291        -0.09843
C          8.58351         2.12974        -0.52129
C          8.57428         3.57153        -0.62765
C          9.82547         1.44450        -0.40566
C          9.81886         4.27580        -0.60493
C          8.58325         6.42083        -0.73960
C          8.58327         7.85655        -0.57885
C          9.82199         5.71193        -0.67571
C          9.78738         8.53922        -0.44634
C          8.51407        10.65133        -0.08936
C          8.54898        12.14036        -0.22914
C          9.80574         9.92357         0.11072
C          9.69743        12.74803         0.58136
C          8.50590        14.94575         0.24980
C          8.50884        16.38676         0.20180
C          9.72715        14.24512         0.46519
C          9.70161        17.10074         0.41262
C          8.52681        19.21431         0.02396
C          9.74946        18.52410         0.27357
C         11.04787         2.12865        -0.40037
C         11.04846         3.57265        -0.50643
C         12.29287         1.44849        -0.25525
C         12.28330         4.27574        -0.50474
C         11.05573         6.40473        -0.64639
C         11.07249         7.89551        -0.85850
C         12.28795         5.70603        -0.57906
C         12.28517         8.57911        -0.27626
C         11.03258        10.72818        -0.33765
C         11.03095        12.11095         0.26780
C         12.28465         9.94921        -0.05641
C         12.20261        12.76981         0.57343
C         10.94228        14.90673         0.69784
C         10.90490        16.37317         0.83576
C         12.18475        14.20810         0.81138
C         12.22113        17.12336         0.90197
C         11.00001        19.20289         0.29234
C         12.23312        18.54099         0.48123
C         13.51521         2.12684        -0.27516
C         13.53155         3.57362        -0.44957
C         14.74884         1.46271        -0.01470
C         14.74498         4.26886        -0.51905
C         13.52972         6.41018        -0.53082
C         13.52063         7.83786        -0.29519
C         14.77278         5.69793        -0.51906
C         14.71330         8.50242        -0.06419
C         13.45581        10.64684         0.37030
C         13.46778        12.03735         0.60265
C         14.67872         9.85191         0.50603
C         14.68656        12.73896         0.88540
C         13.42114        14.91097         0.91113
C         13.46604        16.33769         0.85139
C         14.66847        14.19376         1.00035
C         14.68488        17.02242         0.76470
C         13.48089        19.15686         0.30520
C         14.70698        18.45124         0.50120
C         15.97765         2.12591        -0.10956
C         16.02026         3.49564        -0.74217
C         17.18737         1.50448         0.23117
C         17.30266         4.24560        -0.45993
C         16.01358         6.39476        -0.47735
C         15.95234         7.90111        -0.66616
C         17.27557         5.70458        -0.46736
C         17.23770         8.66637        -0.35014
C         15.97707        10.61140         0.71850
C         15.92549        12.06966         0.85756
C         17.23573         9.98799         0.29917
C         17.17227        12.73992         1.06890
C         15.86810        14.89366         1.15382
C         15.91396        16.31340         0.98447
C         17.10530        14.15641         1.60586
C         17.14009        17.01762         1.03586
C         15.94443        19.09476         0.39849
C         17.17566        18.42607         0.70039
C         18.46806         2.09712         0.06262
C         18.51039         3.52593        -0.35730
C         19.55694         1.31425         0.53099
C         19.73888         4.26780        -0.41177
C         18.47433         6.42898        -0.37194
C         18.52994         7.90053        -0.30513
C         19.78378         5.75900        -0.60769
C         19.72596         8.57027         0.24241
C         18.42485        10.65613         0.56764
C         18.36957        12.02859         1.02984
C         19.69348         9.93848         0.52834
C         19.63195        12.68528         1.43731
C         18.38524        14.94289         1.43556
C         18.37058        16.31602         1.32608
C         19.64117        14.19083         1.64278
C         19.62536        17.09695         1.54191
C         18.38032        19.12203         0.66561
C         19.64476        18.61149         1.29422
C         20.92982         1.55709         0.24748
C         21.00027         3.66689        -0.44725
C         22.11528         1.20917         0.87316
C         22.16521         4.28366         0.04401
C         20.96939         6.43450         0.05750
C         20.94422         7.81329         0.34295
C         22.15799         5.68599         0.26609
C         22.16012         8.50328         0.67422
C         20.91739        10.63144         0.85714
C         20.91564        12.01253         1.16718
C         22.14978         9.91649         0.86108
C         22.13236        12.72874         1.30918
C         20.93627        14.87381         1.48061
C         20.92962        16.35377         1.54396
C         22.11686        14.17709         1.43569
C         22.16977        17.04554         1.13088
C         20.87537        19.06915         0.55196
C         22.09807        18.38296         0.60941
C         23.35063         1.95705         0.60172
C         23.29707         3.48988         0.68539
C         24.56709         1.32111         0.67948
C         24.59446         4.19680         0.35264
C         23.39043         6.36717         0.59936
C         23.38545         7.78872         0.73465
C         24.61023         5.66364         0.58211
C         24.62253         8.49484         0.84942
C         23.38092        10.62464         1.03063
C         23.36925        12.03675         1.19981
C         24.61871         9.91342         0.95337
C         24.61499        12.77719         1.10843
C         23.42436        14.91992         1.67698
C         23.38645        16.36290         1.19237
C         24.61883        14.16204         1.14953
C         24.58785        17.03885         0.86813
C         23.31577        18.98215         0.15581
C         24.54070        18.34103         0.31617
C         25.86070         1.98665         0.67089
C         25.88221         3.44768         0.41683
C         27.03421         1.32738         0.87847
C         27.12616         4.20768         0.65332
C         25.84987         6.35288         0.66883
C         25.85460         7.77552         0.79208
C         27.09520         5.63505         0.66891
C         27.09188         8.49148         0.82592
C         25.85761        10.63485         0.92876
C         25.85157        12.04972         0.91734
C         27.09207         9.91639         0.86959
C         27.09043        12.76590         0.80175
C         25.79819        14.91862         0.60677
C         25.88654        16.33311         1.17954
C         27.09851        14.17383         0.70999
C         27.12533        17.04658         0.68507
C         25.81260        19.02466        -0.15195
C         27.05057        18.54861         0.65429
C         28.34485         2.03892         1.10641
C         28.32441         3.51335         0.78006
C         29.56074         1.36616         0.53779
C         29.56561         4.22055         0.72418
C         28.32437         6.35157         0.76236
C         28.32425         7.77980         0.79382
C         29.55938         5.64452         0.73617
C         29.56702         8.48714         0.80981
C         28.33011        10.62881         0.80902
C         28.32610        12.05328         0.74960
C         29.56455         9.92928         0.74600
C         29.55045        12.76668         0.61380
C         28.31223        14.88399         0.58972
C         28.29200        16.35202         0.48776
C         29.53199        14.18254         0.54542
C         29.53251        17.04139         0.15651
C         28.31059        19.19085         0.17349
C         29.49416        18.48524        -0.02855
C         30.76715         2.06616         0.41608
C         30.79048         3.51267         0.57185
C         31.98518         1.38840         0.13612
C         32.01718         4.23525         0.44175
C         30.80236         6.36361         0.71549
C         30.78355         7.78289         0.83794
C         32.01729         5.66487         0.51963
C         32.05525         8.56380         1.07186
C         30.77632        10.64264         0.52030
C         30.78435        12.03698         0.47179
C         32.01798         9.84130         0.19079
C         31.99914        12.76218         0.11429
C         30.83681        14.93117         0.56328
C         30.73331        16.34838         0.04396
C         31.97671        14.12932        -0.00852
C         31.94675        17.03294        -0.29723
C         30.70653        19.16362        -0.33329
C         31.92812        18.47083        -0.44998
C         33.22141         2.07744         0.07809
C         33.22086         3.50208         0.21146
C         34.45524         1.37359        -0.04046
C         34.50594         4.19407         0.29353
C         33.25279         6.46139         0.14446
C         33.30892         7.81420         0.77608
C         34.52445         5.69701         0.45931
C         34.60032         8.56424         0.96550
C         33.30084        10.64172         0.22922
C         33.25262        12.02015        -0.02734
C         34.55188         9.97488         0.36176
C         34.47244        12.75100        -0.22280
C         33.11938        14.83026        -0.68361
C         33.15498        16.32469        -0.47957
C         34.44342        14.14665        -0.45115
C         34.36727        17.01217        -0.70469
C         33.14110        19.15006        -0.70313
C         34.36391        18.45297        -0.79881
C         35.70729         2.04536        -0.11490
C         35.72175         3.46369        -0.04664
C         36.94361         1.35496        -0.29806
C         36.94055         4.18038        -0.36115
C         35.78805         6.44462         0.29912
C         35.83216         7.81661         0.51138
C         36.97107         5.72341        -0.15336
C         37.03742         8.54555         0.31470
C         35.75569        10.66404         0.15386
C         35.73259        12.06778        -0.15815
C         37.03851         9.96107         0.15896
C         36.93114        12.78117        -0.37519
C         35.63447        14.86585        -0.64469
C         35.61031        16.29747        -0.81763
C         36.89237        14.17040        -0.66106
C         36.81827        16.99536        -1.02647
C         35.58085        19.13203        -1.03334
C         36.80075        18.43364        -1.15951
C         38.17826         2.04095        -0.37087
C         38.21375         3.46442        -0.36772
C         39.42636         1.33998        -0.51935
C         39.44454         4.17868        -0.45588
C         38.29342         6.30459         0.13583
C         38.31431         7.83365         0.32445
C         39.50666         5.60048        -0.29598
C         39.54637         8.51877        -0.06303
C         38.24566        10.63754        -0.07725
C         38.26275        12.14590        -0.03897
C         39.49361         9.93178        -0.22774
C         39.42564        12.74811        -0.77996
C         38.07914        14.88307        -0.99769
C         38.05831        16.28040        -1.16196
C         39.28613        14.09883        -1.43014
C         39.27221        17.00134        -1.45157
C         38.00651        19.11751        -1.41620
C         39.23271        18.42726        -1.56271
C         40.61007         2.01733        -0.65838
C         40.66145         3.44930        -0.61345
C         41.87949         4.16690        -0.67895
C         40.72635         6.30414        -0.35589
C         40.73665         7.77671        -0.29004
C         41.91050         5.54896        -0.57564
C         41.90969         8.51285        -0.55677
C         40.69059        10.63305        -0.56535
C         40.62100        12.05890        -0.90297
C         41.88476         9.90079        -0.67348
C         41.77780        12.76217        -1.38463
C         40.57107        14.88399        -1.46880
C         40.52443        16.31667        -1.58292
C         41.76003        14.14095        -1.56534
C         41.69387        17.08034        -1.81232
C         40.43444        19.14706        -1.80957
C         41.64197        18.47290        -1.92772
O         25.24910         3.79614        -0.88311
O         36.82574         5.15832        -1.48482
O         20.30007        16.79849         2.82025
O         38.42647         6.88984         1.45640
O         18.10864         8.62454        -1.54537
O         19.58801        13.26876         2.80103
O         34.54068         4.90687         1.67525
O         15.31912         9.90204         1.84512
O         21.11467         2.35912        -0.89533
O         11.44391        16.86444         2.12096
O          4.88287         5.72766        -2.75254
H          5.59409         5.11388        -3.03916
O          6.18002         8.14648        -2.46494
H          5.59997         7.46099        -2.88522
O         23.12246         3.73014         2.12363
H         22.32294         3.24169         2.41404
O         34.78134         8.80350         2.40092
H         33.91523         9.14251         2.73707
O          9.92387         9.76703         1.57095
H          9.64813        10.62978         1.98081
O         23.56342        14.93961         3.13345
H         22.73665        15.31595         3.50444
O         32.05022         9.03836         2.45517
H         31.83940         8.27365         3.03178
O         16.05305         3.24756        -2.20222
H         16.79416         2.62677        -2.37110
O          8.78050        12.42717        -1.64035
H          9.52519        11.85288        -1.96003
O          9.40280        12.43503         1.99101
H         10.04718        12.92380         2.54719
O         25.69969        20.43811        -0.02361
H         25.75181        20.63682         0.93645
O         15.71766         8.07246        -2.11488
H         16.61629         8.10551        -2.52604
O         10.94492        10.87131        -1.79483
H         11.80968        11.19373        -2.12420
O         11.18460         8.08154        -2.32432
H         12.00639         7.62627        -2.60902
O         26.79210        19.01559         2.03245
H         27.64397        18.97479         2.51731
O         38.99777        13.78748        -2.87059
H         39.80008        13.34629        -3.22616
O         28.54153         1.97776         2.58173
H         29.41618         2.37979         2.77348
O         19.72117        19.28420         2.59760
H         20.09423        18.62215         3.22825
O         26.01828        16.23547         2.61836
H         25.99844        17.15379         2.96746
O         20.06300         5.93500        -2.06353
H         19.28359         5.58975        -2.54971
O         32.86049        14.66053        -2.13600
H         33.60665        15.08291        -2.61367
O          6.06015        10.47283         1.69473
H          5.14331        10.68193         2.01038
O          3.36631        10.53320         1.62541
H          3.10864         9.60721         1.82640
O         25.53667        15.11620        -0.82921
H         25.55374        14.23524        -1.26006
O          2.46573        17.03541        -2.53587
H          2.49543        16.08351        -2.77126
O         16.95322        14.01590         3.06119
H         17.80904        13.64668         3.39371
O         33.24097         6.64216        -1.31966
H         32.65464         7.41235        -1.51221
O         31.18470        15.09277         1.99539
H         30.39558        15.46174         2.44681
O         31.88145         9.34086        -1.17562
H         31.82609        10.11320        -1.77771
O         38.48992        12.49972         1.38322
H         37.83031        12.00515         1.91588
H          0.30757         1.49851        -1.05767
H          0.25094         3.95660        -1.15337
H          2.45728         0.27687        -0.76966
H          0.19824         5.83564        -0.78437
H          0.14604         8.25998        -0.56626
H          0.17668        10.21882        -0.84296
H          0.18757        12.63663        -0.65011
H          0.18618        14.56181        -0.25208
H          0.21073        16.96672        -0.65970
H          1.48415        19.13296        -0.78819
H          4.90843         0.31643        -0.58852
H          3.58531        20.33050        -0.33705
H          7.36156         0.34022        -0.42859
H          6.06456        20.32629        -0.27857
H          9.81921         0.34785        -0.31549
H          8.54235        20.31135        -0.06074
H         12.28569         0.35657        -0.11801
H         11.01091        20.28154         0.07295
H         14.72833         0.41077         0.30966
H         13.52372        20.22178         0.03058
H         17.14618         0.47647         0.62451
H         15.97669        20.16828         0.15967
H         19.30075         0.43403         1.14237
H         18.36833        20.18408         0.37585
H         22.14431         0.39447         1.61395
H         20.86847        20.09579         0.15489
H         24.57807         0.22480         0.78792
H         23.29149        19.99512        -0.27177
H         27.02274         0.24155         1.06253
H         25.97238        18.79362        -1.23749
H         29.56130         0.27154         0.42316
H         28.30815        20.28529         0.05811
H         31.97390         0.29384         0.02855
H         30.69395        20.25825        -0.44051
H         34.43328         0.27537        -0.09531
H         33.13318        20.24374        -0.81997
H         36.93608         0.25776        -0.37093
H         35.57619        20.22788        -1.12945
H         39.41454         0.24036        -0.53362
H         37.99446        20.21392        -1.50699
H         41.55117         1.46162        -0.78337
H         42.82017         3.61130        -0.80582
H         42.88321         6.05619        -0.63050
H         42.86684         7.99556        -0.70527
H         42.82901        10.41581        -0.89487
H         42.73262        12.23313        -1.49858
H         42.71412        14.64862        -1.76592
H         42.66636        16.58052        -1.91300
H         40.39554        20.24205        -1.89758
H         42.56820        19.03459        -2.11343
