         317
 CSIRO Nanostructure Databank - Neutral Graphene Oxide Data Set
C         30.08487        31.75429        -0.04568
C         30.31840        32.99534        -0.27008
C         30.39025        36.22169        -0.72048
C         30.40834        37.43756        -0.93152
C         30.44904        40.49552        -0.76278
C         30.33773        41.70003        -0.50952
C         32.53327        28.87335         0.22579
C         31.47597        29.48866         0.05386
C         32.50217        31.61971         0.49005
C         31.33910        30.92673        -0.35021
C         32.60847        33.16186         0.26993
C         31.38378        33.86474        -0.26197
C         32.79122        35.97143        -0.56660
C         31.48659        35.20815        -0.91370
C         32.70679        37.48876        -0.35566
C         31.67234        38.20725        -1.28458
C         32.77046        40.45939        -0.29230
C         31.68891        39.76906        -1.20531
C         32.69130        41.76172         0.08770
C         31.37554        42.62020         0.04763
C         32.86360        44.35030        -0.41476
C         31.76793        43.82042        -0.83420
C         35.39140        27.20475         0.03577
C         35.14109        28.66865         0.41570
C         33.90745        29.38175        -0.17457
C         35.17608        31.63126         0.29684
C         33.86845        30.88424         0.32598
C         35.26991        33.17010         0.49773
C         33.93195        33.89491         0.21783
C         35.24483        36.05622        -0.56182
C         33.94587        35.30394        -0.29034
C         35.24735        37.44296         0.13238
C         34.04372        38.28139        -0.42149
C         35.23741        40.34030         0.50913
C         33.87983        39.61390         0.32558
C         35.20740        41.79376         0.06008
C         33.94333        42.47595         0.63146
C         35.24940        44.68520         0.63600
C         34.02288        43.95693         0.20260
C         35.34036        46.17274         0.20300
C         37.78149        27.23327         0.72082
C         36.49968        26.67638         0.16663
C         37.77977        28.70339         0.19818
C         36.43077        29.33896        -0.17377
C         37.71111        31.63785        -0.18148
C         36.41503        30.88934        -0.17707
C         37.71219        33.12032        -0.02529
C         36.51280        33.80424        -0.10743
C         37.82413        35.97592         0.02973
C         36.53323        35.26377        -0.32788
C         37.84574        37.44120         0.30303
C         36.59543        38.22801        -0.05730
C         37.85830        40.36924         0.89811
C         36.53634        39.60486         0.62494
C         37.88954        41.79310         0.32050
C         36.58929        42.53150         0.11972
C         37.80225        44.70655         0.90697
C         36.61149        44.07488         0.07996
C         37.72232        46.24357         0.96049
C         36.48148        46.63803         0.39809
C         40.38763        24.52390        -0.09842
C         39.33642        25.19989         0.02450
C         40.26044        27.02785         1.08981
C         39.09382        26.52057         0.53761
C         40.21531        28.80837        -0.56651
C         38.92464        29.38895        -0.08904
C         40.26198        31.56167        -0.27267
C         38.97984        30.88166         0.19036
C         40.26539        33.05084        -0.18557
C         38.98900        33.80067         0.04570
C         40.28530        35.91407         0.19359
C         39.01805        35.15392         0.28952
C         40.30093        37.32113         0.75365
C         39.01833        38.10036         0.48430
C         40.34688        40.20340         1.03314
C         39.09084        39.62033         0.35607
C         40.39812        41.70805         0.95642
C         39.25651        42.55620         0.41530
C         40.43010        44.53208         1.68966
C         39.09318        43.92233         1.12593
C         40.55199        46.02891         1.51666
C         38.60389        47.13336         1.54612
C         40.18203        48.77841         0.93298
C         38.96859        48.41589         1.02624
C         42.88171        24.30204         0.48261
C         41.49758        24.57236         0.89584
C         42.76666        27.13697         0.26140
C         41.60269        26.39917         0.89189
C         42.75748        28.59912        -0.31239
C         41.49538        29.43806        -0.11789
C         42.83869        31.53035        -0.15791
C         41.55383        30.81121        -0.13785
C         42.84456        33.04164        -0.34938
C         41.57630        33.68677         0.25765
C         42.85001        35.92328         0.19553
C         41.57390        35.18545         0.03355
C         42.81630        37.28320         0.23198
C         41.54668        38.04599         0.26470
C         42.90092        40.19482         0.54805
C         41.58726        39.53143         0.43287
C         42.95667        41.65110         0.84217
C         41.69341        42.32002         1.44088
C         42.79692        44.59058         0.53360
C         41.72321        43.83683         1.26913
C         42.37804        45.89145        -0.14873
C         41.45763        46.73902         0.74413
C         42.57604        48.71447        -0.06177
C         41.40758        48.19870         0.57980
C         43.88949        24.97089         0.26893
C         45.28845        27.11344         0.28404
C         44.05011        26.37382        -0.24898
C         45.31446        28.63882        -0.21382
C         44.00238        29.33674         0.25821
C         45.28448        31.50374         0.29087
C         44.00513        30.82147        -0.05618
C         45.29077        32.98708         0.45631
C         44.08559        33.77195         0.13764
C         45.31070        35.92473         0.44994
C         44.12102        35.18623         0.20900
C         45.28649        37.42666         0.65438
C         44.07596        38.03474        -0.06328
C         45.19189        40.20139        -0.36464
C         44.02535        39.50777         0.22100
C         45.12031        41.67255        -0.57003
C         44.07796        42.42310         0.20587
C         45.14890        44.58368        -0.31744
C         44.01300        43.88927         0.01316
C         45.05888        46.13331        -0.10279
C         43.82560        46.65704        -0.84757
C         43.47671        48.06886        -0.62407
C         47.66547        27.30171        -0.12029
C         46.64021        26.61329        -0.25506
C         47.90163        28.70989         0.04656
C         46.59757        29.41352         0.12830
C         47.86883        31.55493        -0.04209
C         46.58038        30.77700         0.19657
C         47.88213        33.01965         0.37104
C         46.59497        33.71179         0.64383
C         47.89684        35.96324         0.67801
C         46.56570        35.20906         0.71178
C         47.84481        37.39172         0.06418
C         46.53276        38.07037         0.09323
C         47.64110        40.30054         0.11864
C         46.51291        39.45096        -0.55034
C         47.64884        41.76461        -0.35764
C         46.39371        42.40062        -0.99537
C         47.55407        44.56854        -1.05197
C         46.37855        43.90118        -0.74267
C         47.36453        45.98554        -0.90273
C         46.37869        46.66961        -0.60858
C         50.42769        28.91432         0.17807
C         49.08539        29.36665         0.23732
C         50.36271        31.61715        -0.02617
C         49.12163        30.87818         0.51893
C         50.31522        32.98073        -0.04376
C         49.07248        33.70155         0.29032
C         50.30813        36.02020         0.29024
C         49.04519        35.20310        -0.01176
C         50.29703        37.37430         0.48082
C         49.03695        38.23862         0.73508
C         50.18269        40.33065        -0.06247
C         49.02797        39.64000         0.11330
C         50.23446        41.71679        -0.71272
C         48.91595        42.48455        -0.65272
C         50.12848        44.44485        -1.12605
C         48.81010        43.83239        -1.47152
C         51.55939        29.44485         0.16616
C         52.79145        31.74257        -0.16616
C         51.64605        30.81690        -0.48609
C         52.69087        32.96383        -0.29014
C         51.53195        33.88700        -0.43224
C         52.69458        36.10005         0.19161
C         51.58316        35.13229         0.45269
C         52.72511        37.31235         0.42487
C         51.56367        38.19772         0.59484
C         52.60614        40.55872        -0.07015
C         51.50188        39.66580         0.29402
C         52.63778        41.76818        -0.31850
C         51.44844        42.66307        -0.09852
C         51.22209        43.95034        -0.83500
O         42.61551        26.99976         1.71448
O         48.29295        42.60627         0.65292
O         41.39762        38.92467        -0.89282
O         37.35032        41.95294        -1.01209
O         39.64451        46.64599         2.39037
O         45.08570        32.08139         1.65822
O         40.24181        28.00143        -1.50088
O         46.52621        34.38664         1.96195
O         35.71874        39.86080         1.80839
O         34.65641        31.04619         1.52984
O         42.79702        44.53540         1.98863
O         37.45450        35.69064        -1.38840
O         42.83956        33.36452        -1.83380
O         40.22228        32.36961        -1.48947
O         51.55288        39.15958         1.66071
O         44.13280        42.03087         1.62881
O         37.00988        31.33606        -1.43930
O         33.11601        33.84505         1.46504
O         44.65333        40.80172        -1.64032
O         38.04765        43.97743         2.13773
O         42.73148        32.14758        -2.58717
H         41.74617        32.00440        -2.61484
O         49.12175        31.03539         1.94677
H         49.96373        30.67706         2.29870
O         51.40364        34.29630        -1.79325
H         51.51436        33.50723        -2.36524
O         33.40773        39.40282         1.67437
H         33.46381        40.26789         2.14260
O         34.89841        41.71633        -1.34982
H         35.68952        41.36421        -1.81773
O         45.15217        37.74073         2.07142
H         45.98582        37.49101         2.52347
O         32.09769        31.43154         1.84568
H         32.81939        31.76445         2.42260
O         41.61253        45.50423        -1.28869
H         41.10380        46.27428        -1.61720
O         40.26171        28.05631         1.97315
H         41.19405        28.16034         2.29181
O         43.92538        29.27228         1.69539
H         44.34323        30.07602         2.07676
O         45.33209        28.65225        -1.64425
H         46.15350        28.21108        -1.94763
O         46.53265        42.23329        -2.42790
H         45.98308        41.44370        -2.67422
O         40.85547        35.69875        -1.14140
O         41.78780        42.04511         2.86942
H         42.57002        42.54470         3.19784
O         41.62736        33.46238         1.68468
H         42.49786        33.76397         2.02377
O         51.57346        30.65634        -1.87838
H         52.29080        30.05795        -2.17142
O         41.14507        24.10805         2.13695
H         41.94596        23.93114         2.66897
O         40.41993        37.14104         2.18364
H         40.37758        38.04113         2.60387
O         50.52480        41.47500        -2.08874
H         50.32479        42.28955        -2.60899
O         31.96891        40.23201        -2.52533
H         32.04513        41.20991        -2.51259
O         35.13175        28.70256         1.81690
H         34.23524        28.46922         2.13620
O         44.04979        26.31880        -1.65678
H         44.91167        25.96029        -1.95450
O         45.30099        27.01326         1.67262
H         46.04756        27.52773         2.03992
O         48.84196        35.11176        -1.43988
H         49.72676        34.97362        -1.86250
O         51.62066        34.68117         1.79663
H         51.78243        35.44700         2.38575
O         51.23678        42.84077         1.26481
H         51.93878        43.40786         1.64229
O         35.04973        37.18271         1.52434
H         34.94642        38.04987         1.99157
O         31.63084        31.02360        -1.71473
H         30.99032        30.49510        -2.23285
O         33.94392        29.40371        -1.58036
H         34.35723        28.57300        -1.90445
O         35.34079        44.63899         2.04520
H         34.48031        44.89085         2.43780
O         34.27656        38.70364        -1.76648
H         34.37523        37.90526        -2.33577
O         48.80361        43.55580        -2.87010
H         47.93523        43.13335        -3.09329
O         33.92564        42.36856         2.06381
H         33.03966        42.67304         2.36550
O         39.06878        30.99061         1.64212
H         38.47011        30.33324         2.05833
O         31.10081        43.03165         1.36671
H         30.20966        43.43787         1.39215
O         48.91057        38.47588         2.12099
H         48.95686        37.61447         2.59773
O         35.20690        36.30135        -2.00266
H         35.51113        35.49199        -2.46650
O         48.03442        31.53808        -1.48954
H         47.27731        32.00156        -1.90487
O         46.74736        39.37387        -1.97967
H         45.95966        38.90110        -2.34534
O         39.63673        42.90814        -0.94679
H         39.63953        42.06492        -1.45945
O         31.58599        34.98194        -2.33091
H         31.60727        35.87411        -2.75858
O         35.55234        33.37078         1.90414
H         34.68976        33.35719         2.38221
O         44.33117        37.88850        -1.49634
H         43.49516        38.12419        -1.95833
O         38.01474        40.51779         2.31113
H         37.11960        40.59728         2.71445
O         31.97532        37.79627        -2.61200
H         31.79249        38.55438        -3.21618
O         39.15970        39.94530        -1.04984
H         38.40143        39.49057        -1.49824
O         40.37728        44.30345         3.11048
H         39.48177        44.56619         3.42076
O         44.88230        46.40730         1.26504
H         45.63164        46.04158         1.77783
O         37.56518        27.40735         2.13041
H         37.58878        26.52644         2.55873
O         47.20994        40.34735         1.49141
H         47.82515        40.93846         1.97967
O         42.86892        28.53651        -1.73334
H         42.05076        28.10263        -2.07844
O         36.40650        28.92929        -1.56784
H         36.94693        29.58094        -2.07625
O         32.16927        37.50606         0.97317
H         32.83700        37.11998         1.58246
O         36.75274        44.47356        -1.27859
H         37.24312        43.76116        -1.75003
O         48.30935        36.05834         2.06460
H         47.91436        35.27121         2.52431
O         43.91458        46.26489        -2.17766
H         43.13971        46.58821        -2.67951
O         36.77874        38.54726        -1.46376
H         36.78105        37.68599        -1.95144
O         40.37039        39.80071         2.43703
H         40.77574        40.54203         2.95613
O         48.30161        37.35639        -1.30823
H         47.86649        38.08010        -1.82296
