         261
 CSIRO Nanostructure Databank - Neutral Graphene Oxide Data Set
C        -11.27149         0.50524         0.02773
C        -10.11289         1.37310        -0.31723
C         -8.80410         0.66324        -0.45068
C         -7.57016         1.40480        -0.07339
C         -6.28849         0.61372        -0.08208
C         -5.01525         1.36975        -0.20236
C         -3.79280         0.81517         0.44766
C         -2.51379         1.57533         0.32640
C         -1.19791         0.85054         0.39173
C         -0.01242         1.68420         0.82352
C          1.27642         0.98355         1.36576
C          2.57721         1.65454         0.81309
C          3.75390         0.76083         0.38327
C          5.06894         1.54137         0.45240
C          6.36919         0.80488         0.44890
C          7.70002         1.50402         0.24964
C          8.83096         0.80305        -0.43599
C         10.16135         1.50967        -0.45322
C         11.35015         0.61986        -0.35268
C        -10.15958         2.84363         0.11707
C         -8.88836         3.64538        -0.15753
C         -7.59880         2.89356        -0.08216
C         -6.35066         3.59227        -0.52619
C         -5.05799         2.84382        -0.54451
C         -3.80265         3.65625        -0.38841
C         -2.50414         2.89367        -0.40530
C         -1.21831         3.64300        -0.46934
C         -0.00661         3.08533         0.25944
C          1.29390         3.71978        -0.16376
C          2.59046         3.05538         0.23281
C          3.83568         3.61637        -0.43139
C          5.13967         2.92379        -0.10552
C          6.43495         3.66440        -0.03555
C          7.73905         2.99802         0.31601
C          8.96468         3.74441        -0.07492
C         10.27334         2.96427         0.05099
C         -8.84084         4.99591        -0.03861
C         -7.50679         5.67106         0.26775
C         -6.39588         5.10191        -0.59795
C         -5.14295         5.86517        -0.89065
C         -3.83742         5.13381        -0.64427
C         -2.55399         5.84171        -1.00309
C         -1.27085         5.14535        -0.60069
C          0.01411         5.90413        -0.76452
C          1.31018         5.10132        -0.76415
C          2.63002         5.83679        -0.93803
C          3.90738         5.04073        -0.89925
C          5.21817         5.80627        -0.73659
C          6.33592         5.17298         0.13396
C          7.66892         5.88199        -0.09417
C          8.89923         5.09696        -0.23069
C         -7.46112         7.15970         0.48074
C         -6.33668         7.98759         0.08626
C         -5.12831         7.36051        -0.69012
C         -3.82064         8.08452        -0.71143
C         -2.56219         7.34553        -1.08016
C         -1.27443         8.21422        -1.16092
C         -0.16882         7.19244        -1.56345
C          1.60837         7.99027         0.03477
C          2.68108         7.31529        -0.77480
C          3.97019         8.09816        -0.80716
C          5.23987         7.30441        -0.66316
C          6.34283         7.97379         0.17793
C          7.65272         7.24217        -0.06207
C         -6.01547         9.17435         0.91653
C         -4.78664         9.72208         1.01770
C         -3.62969         9.31094         0.18759
C         -2.26910         9.69497         0.58494
C         -1.10040         9.22189        -0.01103
C          0.11519         9.94025         0.21055
C          1.43217         9.46495        -0.08404
C          2.60925        10.19635        -0.15403
C          3.91826         9.55878        -0.47553
C          5.23329        10.19934        -0.17856
C          6.35993         9.47844        -0.03430
C        -11.19559        -0.83523        -0.01113
C        -10.02000        -1.61048        -0.57744
C         -8.70267        -0.83655        -0.49201
C         -7.47315        -1.54966        -0.00221
C         -6.41791        -0.70080         0.71972
C         -5.08010        -1.43211         0.92179
C         -3.78903        -0.67164         0.73312
C         -2.52869        -1.38533         0.31215
C         -1.20240        -0.64342         0.37900
C         -0.00950        -1.36909         0.95138
C          1.22765        -0.58013         1.31494
C          2.56136        -1.30906         1.61488
C          3.85284        -0.61591         1.08256
C          5.09378        -1.39282         0.70305
C          6.25591        -0.63950         0.08895
C          7.44980        -1.37614        -0.40528
C          8.76985        -0.69401        -0.63157
C         10.04935        -1.50073        -0.60568
C         11.29519        -0.73176        -0.36434
C         -9.80434        -2.96534         0.10380
C         -8.64889        -3.76266        -0.45640
C         -7.70948        -2.99319         0.44325
C         -6.48487        -3.74018         1.03856
C         -5.09807        -2.96758         0.91814
C         -3.79589        -3.64847         0.56349
C         -2.53333        -2.87462         0.24322
C         -1.22092        -3.62367         0.43149
C          0.04676        -2.87270         0.75420
C          1.24733        -3.59136         1.34064
C          2.56749        -2.83921         1.29695
C          3.75762        -3.57371         0.73626
C          4.95163        -2.82457         0.24978
C          6.11579        -3.51455        -0.39806
C          7.48802        -2.85651         0.02681
C          8.74623        -3.63358        -0.31027
C          9.96021        -2.96060        -0.38175
C         -8.65968        -5.10057        -0.62899
C         -7.67020        -5.95307         0.13884
C         -6.37176        -5.19330         0.46534
C         -5.08500        -5.77068        -0.05304
C         -3.77255        -5.05437         0.03112
C         -2.51492        -5.85319         0.24390
C         -1.32452        -5.08812         0.79923
C         -0.06350        -5.83492         1.10792
C          1.26164        -5.09658         1.31445
C          2.55964        -5.81361         0.96154
C          3.61801        -4.99372         0.25465
C          4.79303        -5.69628        -0.36049
C          6.17927        -5.06623        -0.77418
C          7.41648        -5.74577        -0.14644
C          8.65378        -5.04194        -0.14666
C         -7.47922        -7.35267        -0.40555
C         -6.31537        -7.82615        -0.91172
C         -5.20317        -6.85818        -1.10336
C         -3.73467        -8.27798         0.31081
C         -2.51920        -7.36527         0.62556
C         -1.20310        -8.01622         0.17858
C          0.00982        -7.27810         0.64050
C          1.24236        -7.97017         1.16359
C          2.55273        -7.30214         0.75594
C          3.56310        -7.97850        -0.14429
C          4.83842        -7.20641        -0.40943
C          6.17591        -7.91716        -0.25757
C          7.36169        -7.11354         0.06663
C         -6.06848        -9.18834        -1.39204
C         -4.84812        -9.78927        -1.41270
C         -3.62675        -9.30162        -0.76580
C         -2.42538        -9.92990        -0.86677
C         -1.21865        -9.55089        -0.01588
C          0.04545       -10.09479        -0.69864
C          1.25641       -10.20809        -0.19109
C          2.51225       -10.40448         0.18972
C          3.62920        -9.49724        -0.23002
C          4.99060       -10.08935        -0.12897
C          6.12771        -9.37321         0.00112
O          9.33107         1.44906        -1.64824
O          5.55936        -7.61970        -1.57296
O          3.18166        -8.66858        -1.35342
O          3.14935        -6.71072         1.95440
O         -4.31912        -0.93997         2.06446
O         -0.34867        -7.34024        -0.78143
O          4.89526        -0.94673         2.05259
O         -0.67068         5.85992         0.51736
O         -3.28682         1.61708         1.55776
O          8.01306         2.20463         1.51424
O         -5.56344        -6.07272         1.29580
O          1.13157         7.41680         1.00658
O          2.88137         2.82207         1.63688
O          2.49058         6.72680        -2.08794
O          7.44034        -2.86231         1.39797
O         -7.65670        -1.30473        -1.41388
O         -0.99420        -5.46309         2.15679
O          1.23940         3.92481        -1.61376
O          6.00999         3.06728        -1.28859
O          5.19178        -2.85035        -1.20258
O          3.69617        -5.18570        -1.17565
O         -5.51241         0.52340        -1.29257
O         -3.83605         4.60882         0.72671
O          3.55730        -3.48481         2.16502
O         -8.94829        -2.81565         1.32117
O          1.16551        -4.35363         2.56617
O         -6.15418         8.08062        -1.38047
O         -0.23370        -3.33005        -0.60041
O         -0.91495         0.10846        -0.83644
O         -6.09156         5.53083        -1.94551
O          5.76683         1.27795         1.68527
O          5.67555         6.59721        -1.86079
O         -4.20741        -3.51780         1.94775
O         -5.79882         3.05562        -1.76902
O         -2.86271        -5.34232        -1.06049
O          9.36909        -1.12607        -1.87171
O         -0.31277         2.84663         1.65282
O         -2.64538         6.50390        -2.28468
O         -4.63435        -8.34313         1.13315
O         -2.66208        -2.08805        -0.96599
O         -9.51177         1.18197        -1.63479
O          5.92677         5.29984         1.48136
O          3.93816         9.06171        -1.89155
O         -3.89389         9.40912        -1.26215
O         -4.49520        -6.88500        -2.09477
O          0.24292        -1.01092         2.31895
O         -7.59655         2.15577         1.20146
O          1.16789        -8.79396         2.05536
O          6.45537        -0.89760        -1.33874
O          3.80937         3.93327        -1.84717
O          6.30961        -5.16294        -2.10141
O         -1.42854         9.06537        -2.29956
O         -1.71861         2.91789        -1.62613
O         -6.95424        -0.40056         2.01279
H         -6.20376        -0.28502         2.63849
O        -10.32250        -1.88540        -1.96014
H        -10.18181        -1.05660        -2.46712
O          5.96328         7.85872         1.57109
H          6.01181         6.88647         1.82979
O         -6.75009        -3.87818         2.43216
H         -5.95628        -4.29214         2.84116
O          3.47670         0.39970        -0.99208
H          3.72537         1.13140        -1.59844
O          2.63148        -1.22455         3.03853
H          3.47044        -1.64990         3.32519
O         10.67160         2.96663         1.42604
H          9.87840         2.73044         1.96221
O         -2.48833        -7.39732         2.06366
H         -3.40882        -7.58744         2.36995
O         -1.36998       -10.16367         1.27267
H         -0.59947        -9.90229         1.82900
O          1.29201         1.22121         2.77077
H          1.48669         2.17189         2.92442
O         -7.13084         5.17310         1.60501
H         -7.92425         5.18836         2.18220
O        -10.35031         2.88224         1.54015
H         -9.52446         2.53735         1.95267
O          0.27847         7.29070        -2.68609
H         -0.94555         8.64160        -3.05139
O         -8.35150        -6.13852         1.40947
H         -8.21412        -5.32842         1.95368
H         12.21769        -1.30857        -0.19680
H         12.31521         1.10727        -0.14648
H         11.08134         3.47572        -0.53154
H          9.82721         5.65948        -0.42378
H          8.58402         7.81989        -0.17506
H          7.31835        10.00075         0.11079
H          5.27978        11.29908        -0.21570
H          2.58138        11.29369        -0.05155
H          0.01767        10.94881         0.64679
H         -2.18068        10.42603         1.40458
H         -4.62124        10.53953         1.73596
H         -6.81618         9.53999         1.57775
H         -8.03658         7.51207         1.35427
H         -9.76877         5.58444         0.02720
H        -11.04537         3.33935        -0.35204
H        -12.18263         0.99763         0.39930
H        -12.07792        -1.42979         0.27320
H        -10.74699        -3.52009         0.31443
H         -9.59425        -5.58748        -0.94954
H         -8.34456        -8.02243        -0.28268
H         -6.93069        -9.74501        -1.79220
H         -4.77119       -10.78433        -1.87909
H         -2.32150       -10.79276        -1.54495
H         -0.11160       -10.53415        -1.70258
H          2.77356       -11.31135         0.76190
H          5.03429       -11.17737         0.03201
H          7.07703        -9.88832         0.21085
H          8.22535        -7.63050         0.51580
H          9.58503        -5.63368        -0.13441
H         10.90027        -3.53605        -0.34680
