         732
 CSIRO Nanostructure Databank - Neutral Graphene Oxide Data Set
C         23.56095        24.26139         1.81715
C         22.38988        24.93216         1.97017
C         23.48161        27.12074         1.65931
C         22.35059        26.35768         1.96260
C         23.41166        28.58301         1.60224
C         22.20644        29.25892         1.87592
C         23.28705        31.42483         1.65786
C         22.15231        30.64941         1.91372
C         23.21548        32.91452         1.94432
C         21.95727        33.58475         1.42535
C         23.01466        35.79442         1.13736
C         21.86415        34.91720         1.20357
C         22.92689        37.17108         1.00464
C         21.71383        37.93472         1.09308
C         22.89811        40.10929         0.96678
C         21.70724        39.30955         1.02855
C         22.89620        41.50180         0.90150
C         21.65715        42.24867         0.83783
C         22.87258        44.36485         1.11318
C         21.62856        43.59654         0.94833
C         22.87053        45.89237         1.00954
C         21.62117        46.60308         0.72644
C         22.86154        48.64916         0.33071
C         21.64717        47.92680         0.37232
C         26.16582        22.84953         1.10457
C         25.86965        24.26517         0.84688
C         24.87045        24.99613         1.72900
C         25.83021        27.20352         0.90454
C         24.71945        26.46439         1.36888
C         25.80327        28.65728         0.95257
C         24.57667        29.34319         1.32486
C         25.69306        31.55379         1.07930
C         24.51607        30.77753         1.36151
C         25.67624        32.95970         1.05495
C         24.47412        33.68845         1.53274
C         25.49255        35.81098         0.51791
C         24.35416        35.14951         1.16806
C         25.40960        37.26308         0.30640
C         24.13275        37.96442         0.63198
C         25.42487        40.14670         0.71121
C         24.20524        39.38077         1.16709
C         25.41414        41.53454         0.69673
C         24.14516        42.25967         0.83740
C         25.34379        44.41624         0.37358
C         24.13673        43.63940         0.85597
C         25.36079        45.89729         0.71034
C         24.15068        46.59668         0.75934
C         25.32742        48.77115         0.56243
C         24.10459        48.03249         0.56983
C         25.37482        50.16041         0.33550
C         28.25180        22.98554        -0.18556
C         27.22458        22.24036         0.50892
C         28.22864        24.38696        -0.14549
C         26.99128        25.08345         0.22864
C         28.14554        27.26426         0.00823
C         27.00714        26.54457         0.42367
C         28.13676        28.71227         0.15716
C         26.95639        29.37633         0.65785
C         28.04363        31.62564         0.23325
C         27.01899        30.84725         1.00378
C         28.00661        33.03216         0.20222
C         26.80744        33.71949         0.62400
C         27.91264        35.88131         0.06731
C         26.73431        35.14972         0.42928
C         27.86042        37.35310        -0.27058
C         26.65649        38.04365         0.28685
C         27.89928        40.14819         0.44057
C         26.65051        39.42185         0.46545
C         27.89080        41.55304         0.60048
C         26.65756        42.27081         0.63540
C         27.82258        44.43709         0.75800
C         26.64390        43.70204         0.64181
C         27.82484        45.87720         0.73677
C         26.60768        46.58766         0.72738
C         27.83226        48.80680         0.52872
C         26.59468        48.08052         1.00171
C         27.83222        50.19080         0.35067
C         26.56771        50.86669         0.30912
C         30.07876        20.46513        -2.20637
C         29.19556        20.97875        -1.27871
C         30.48208        23.07730        -1.28154
C         29.33833        22.32461        -0.86062
C         30.48647        24.48330        -1.09865
C         29.35797        25.14442        -0.57424
C         30.44248        27.32330        -0.94599
C         29.30144        26.58885        -0.50997
C         30.33695        28.78872        -0.97762
C         29.24163        29.44750        -0.25839
C         30.46496        31.68795        -0.52213
C         29.28620        30.90607        -0.06917
C         30.30187        33.13251        -0.90461
C         29.14270        33.79918        -0.21760
C         30.36693        35.96544        -0.36422
C         29.12785        35.20857        -0.17285
C         30.37998        37.36180        -0.15034
C         29.14652        38.07526         0.03298
C         30.43020        40.11822         0.71181
C         29.13623        39.43110         0.32892
C         30.37736        41.62435         0.60557
C         29.15141        42.26420         0.68322
C         30.38722        44.46986         1.02961
C         29.08563        43.70400         0.98272
C         30.30480        45.92856         0.83032
C         29.09828        46.58391         0.74265
C         30.35690        48.82704         0.41664
C         29.07539        48.04034         0.42111
C         30.32587        50.30401         0.40716
C         29.08355        50.95714         0.24293
C         30.30842        53.06543         0.05858
C         29.11163        52.36225         0.08779
C         33.33741        18.76582        -3.47479
C         33.16034        20.10194        -3.24693
C         31.22074        21.20646        -2.58111
C         32.88419        23.09113        -2.11150
C         31.55197        22.44488        -2.02245
C         32.89937        24.53186        -1.83945
C         31.56198        25.25101        -1.82141
C         32.83490        27.43480        -1.57179
C         31.61520        26.70039        -1.40928
C         32.85571        28.84478        -1.46955
C         31.59775        29.57966        -1.35622
C         32.83497        31.71886        -1.14965
C         31.65840        31.00944        -1.06453
C         32.81556        33.16778        -0.97834
C         31.61740        33.86404        -0.78056
C         32.82189        36.00780        -0.64573
C         31.59559        35.27568        -0.59417
C         32.81402        37.41095        -0.52035
C         31.61873        38.09913        -0.20866
C         32.85347        40.24025         0.02008
C         31.64831        39.49681         0.07734
C         32.85542        41.66164         0.29661
C         31.63107        42.35945         0.56445
C         32.85024        44.50862         0.50859
C         31.64368        43.76729         0.69208
C         32.86987        45.95595         0.69365
C         31.59423        46.64815         0.97243
C         32.86332        48.85306         0.70905
C         31.59538        48.14456         0.88048
C         32.81449        50.31965         0.70753
C         31.54059        51.02352         0.43366
C         32.83046        53.14185         0.05984
C         31.55785        52.42264         0.22626
C         32.85926        54.53056        -0.18891
C         35.60029        18.79635        -2.55454
C         34.53477        18.10132        -3.07136
C         35.58245        20.27843        -2.59783
C         34.24850        21.00155        -2.81733
C         35.39714        23.11043        -2.15626
C         34.08375        22.39779        -2.30757
C         35.37084        24.59592        -1.92594
C         34.06446        25.27311        -1.80739
C         35.29916        27.42616        -1.61975
C         34.08250        26.72131        -1.67300
C         35.30862        28.86005        -1.51545
C         34.07589        29.57493        -1.43900
C         35.30076        31.71333        -1.29984
C         34.08279        31.00549        -1.32809
C         35.28711        33.16836        -1.16201
C         34.05866        33.87896        -1.01957
C         35.29151        35.98816        -0.80033
C         34.06318        35.28899        -0.83199
C         35.30395        37.42479        -0.33089
C         34.07700        38.18106        -0.82293
C         35.30984        40.29426        -0.27791
C         34.08284        39.60374        -0.31472
C         35.32475        41.70421        -0.05646
C         34.07189        42.38689         0.18502
C         35.29143        44.54424        -0.01338
C         34.04771        43.80668         0.25494
C         35.29064        46.05423         0.17407
C         34.03731        46.70100         0.61290
C         35.31614        48.87011         0.62145
C         34.06080        48.15528         0.72715
C         35.34896        50.23322         0.35114
C         34.11826        51.04273         0.46966
C         35.27430        53.09402        -0.32788
C         34.06936        52.44834         0.01748
C         35.28351        54.49648        -0.51964
C         34.05372        55.19036        -0.42913
C         37.82913        16.03515        -1.26594
C         36.70567        16.72247        -1.70722
C         37.96642        18.79428        -1.73856
C         36.76086        18.10361        -1.98526
C         38.04409        20.29049        -2.00308
C         36.70239        20.99983        -1.95342
C         37.82714        23.08889        -1.30920
C         36.64186        22.35674        -1.76728
C         37.64831        24.48840        -0.76464
C         36.55760        25.29871        -1.41179
C         37.76213        27.42783        -1.25391
C         36.56416        26.70550        -1.43643
C         37.84788        28.88030        -1.63762
C         36.52448        29.59815        -1.49009
C         37.82623        31.75784        -1.57488
C         36.52488        30.99260        -1.40707
C         37.75655        33.11083        -0.88503
C         36.49355        33.88658        -1.14132
C         37.74045        36.05729        -1.19339
C         36.48912        35.29314        -0.99222
C         37.77346        37.49418        -0.86568
C         36.58019        38.17975        -0.62241
C         37.79509        40.30555        -0.55533
C         36.57216        39.59525        -0.49514
C         37.80508        41.73265        -0.32472
C         36.56032        42.41299        -0.08432
C         37.78263        44.55360         0.10800
C         36.57924        43.83529         0.03366
C         37.75343        45.98594         0.35164
C         36.58183        46.69652         0.43788
C         37.84456        48.86080         0.49448
C         36.59246        48.12742         0.92606
C         37.80046        50.25858         0.15278
C         36.57562        50.91726         0.04873
C         37.79316        52.97843        -0.81942
C         36.46457        52.22271        -0.71361
C         37.80281        54.48075        -0.90801
C         36.53597        55.22926        -0.70335
C         37.83618        57.31099        -0.72704
C         36.60625        56.59734        -0.58640
C         40.09386        14.61563        -0.05712
C         40.32326        15.91236        -0.78630
C         39.05282        16.69619        -1.07564
C         40.41723        18.78811        -1.17376
C         39.11162        18.08342        -1.30943
C         40.38714        20.29447        -1.13088
C         39.02494        20.93502        -1.02551
C         40.24899        23.14950        -0.71129
C         39.02908        22.44615        -1.08048
C         40.25491        24.54422        -0.59798
C         38.95499        25.25770        -0.57535
C         40.31409        27.43671        -0.95145
C         38.97197        26.74471        -0.76159
C         40.19259        28.86313        -0.46661
C         38.94144        29.59264        -0.85964
C         40.20118        31.71534        -0.71233
C         39.03637        31.04238        -1.00683
C         40.23681        33.17285        -0.81819
C         39.05560        33.85663        -1.04520
C         40.29831        36.03529        -1.01873
C         39.06066        35.30044        -1.25733
C         40.26170        37.46400        -1.00460
C         39.01998        38.18301        -0.90232
C         40.28074        40.29209        -0.71796
C         39.03447        39.59880        -0.74591
C         40.26783        41.79329        -0.85016
C         39.01291        42.45282        -0.32950
C         40.28069        44.53387         0.02699
C         39.03898        43.85065        -0.04305
C         40.31513        45.94175         0.46030
C         39.02497        46.69317         0.64897
C         40.29693        48.86150         0.31425
C         39.04257        48.16970         0.48637
C         40.30238        50.24482         0.10160
C         39.05525        50.96572        -0.07733
C         40.34632        53.04305        -0.69777
C         39.05263        52.30026        -0.44493
C         40.26114        54.54145        -0.47604
C         39.08295        55.20500        -0.67364
C         40.30290        57.35134        -1.08822
C         39.04811        56.66210        -0.77511
C         40.30085        58.63314        -1.66978
C         42.31201        14.71339         0.92446
C         41.08709        14.04209         0.68436
C         42.49025        16.05924         0.54041
C         41.43881        16.73471        -0.17053
C         42.65439        18.87412        -0.08762
C         41.54382        18.11093        -0.48533
C         42.70354        20.30317        -0.23940
C         41.53023        21.02642        -0.57225
C         42.67487        23.14524        -0.13401
C         41.48425        22.43249        -0.47983
C         42.68203        24.57159        -0.10340
C         41.46795        25.27572        -0.36620
C         42.65140        27.40714        -0.00448
C         41.49296        26.70374        -0.35195
C         42.59321        28.88605         0.31877
C         41.42623        29.62905        -0.26419
C         42.67416        31.74672        -0.23913
C         41.43021        31.00964        -0.36529
C         42.69608        33.16085        -0.41036
C         41.48252        33.87550        -0.67601
C         42.73626        35.99147        -0.70805
C         41.49174        35.29971        -0.77292
C         42.73197        37.41221        -1.09007
C         41.47869        38.18468        -0.96152
C         42.81314        40.25940        -0.46647
C         41.49125        39.58608        -0.79185
C         42.77976        41.77420        -0.54155
C         41.55470        42.46923        -0.44861
C         42.76747        44.58163        -0.08663
C         41.52941        43.86270        -0.19392
C         42.77783        45.99904         0.14082
C         41.55959        46.71793         0.29832
C         42.78529        48.84595         0.34511
C         41.54527        48.12197         0.34150
C         42.79685        50.26727         0.27504
C         41.54779        50.98615         0.08506
C         42.78946        53.11645         0.08017
C         41.53071        52.36510        -0.05499
C         42.80534        54.61886        -0.07585
C         41.47752        55.38948        -0.10168
C         42.74667        57.27633        -1.27374
C         41.52676        56.67259        -0.90049
C         42.70946        58.56051        -1.85923
C         41.50240        59.23061        -2.04385
C         44.85977        16.13945         1.34126
C         43.70035        16.76926         0.85819
C         45.06835        18.87324         0.65013
C         43.70105        18.26977         0.80867
C         45.18851        20.24131         0.03976
C         43.89651        21.01653         0.04801
C         45.09878        23.15581         0.38859
C         43.88934        22.42464         0.09277
C         45.07931        24.55930         0.46109
C         43.88342        25.28962         0.19541
C         45.07177        27.47226         0.55810
C         43.87616        26.72548         0.27673
C         45.08433        28.91892         0.46017
C         43.89780        29.62011         0.16918
C         45.13295        31.74880         0.11449
C         43.89725        31.03321         0.00968
C         45.15272        33.17737        -0.05886
C         43.93579        33.87796        -0.31797
C         45.18158        36.04856        -0.42016
C         43.94273        35.30202        -0.50825
C         45.20515        37.42836        -0.63936
C         44.04233        38.14207        -1.19133
C         45.29454        40.34572        -0.87305
C         44.00177        39.67572        -1.28820
C         45.30124        41.84674        -0.99779
C         43.99429        42.48520        -0.53862
C         45.23985        44.59929        -0.23154
C         43.99224        43.88927        -0.31814
C         45.23275        45.97492         0.06846
C         44.01154        46.70433         0.21111
C         45.24995        48.83837         0.54139
C         44.01703        48.12697         0.38249
C         45.26651        50.26122         0.43647
C         44.03726        50.95689         0.20297
C         45.22782        53.06987        -0.33932
C         44.05494        52.37494        -0.05238
C         45.25252        54.47796        -0.63675
C         44.04158        55.23367        -0.61937
C         45.24533        57.16295        -1.47335
C         44.01728        56.55771        -1.11081
C         46.05136        16.83382         1.52105
C         47.49321        18.87957         1.13334
C         46.19041        18.20014         1.09802
C         47.56823        20.28247         0.88786
C         46.36438        21.02113         0.55907
C         47.58215        23.15264         0.69851
C         46.31786        22.40132         0.60181
C         47.54401        24.56280         1.15651
C         46.25352        25.31186         0.97187
C         47.48405        27.47468         1.13566
C         46.29899        26.79469         0.86680
C         47.46816        28.98253         1.34347
C         46.28898        29.66067         0.68065
C         47.55264        31.82781         0.88473
C         46.31704        31.04137         0.48255
C         47.61787        33.19973         0.25230
C         46.39172        33.88464        -0.02527
C         47.64029        35.98070        -0.28031
C         46.41769        35.31820        -0.20963
C         47.70883        37.42429        -0.13593
C         46.38492        38.20584        -0.28544
C         47.72890        40.31697        -0.43562
C         46.44509        39.65545        -0.57936
C         47.74608        41.74614        -0.24430
C         46.51392        42.48937        -0.36880
C         47.70040        44.57975         0.23577
C         46.48938        43.86215        -0.21371
C         47.71406        46.04861         0.00379
C         46.47311        46.69085         0.20816
C         47.70988        48.55563         1.00691
C         46.46065        48.06058         0.56645
C         47.71633        50.59672         0.82092
C         46.50063        51.00920         0.30434
C         47.79591        53.01195        -0.60981
C         46.47408        52.28727        -0.43575
C         47.76450        54.46679        -0.79587
C         46.49761        55.13323        -0.94602
C         46.44593        56.49114        -1.34997
C         49.87448        18.87029         1.67160
C         48.66642        18.20126         1.50799
C         49.96623        20.26319         1.46791
C         48.80255        20.95529         1.06159
C         50.06084        23.15148         1.32820
C         48.87884        22.40853         0.85400
C         50.01791        24.59127         1.40769
C         48.82740        25.28307         1.28327
C         50.02685        27.49655         1.64076
C         48.72122        26.74938         1.51142
C         50.02787        28.97624         1.42375
C         48.79044        29.67457         1.04242
C         50.08981        31.70527         0.49964
C         48.83773        31.02569         0.75600
C         50.08981        33.11858         0.16236
C         48.84432        33.82685         0.04765
C         50.15747        35.97234        -0.31593
C         48.88357        35.20361        -0.58564
C         50.18900        37.39659        -0.39442
C         48.95947        38.15532        -0.38428
C         50.20985        40.29552        -0.64544
C         48.93758        39.55838        -0.45616
C         50.21128        41.75045        -0.25414
C         48.94344        42.38953         0.12333
C         50.28660        44.46197         0.75755
C         48.97075        43.77736         0.60793
C         50.40325        45.79315         1.43102
C         48.88106        46.85870        -0.15603
C         50.18723        48.84809         1.06880
C         48.94531        48.09822         0.52044
C         50.21800        50.30788         0.58310
C         49.02646        51.06126         0.40219
C         50.26270        53.06247        -0.29419
C         49.04785        52.36382        -0.17225
C         50.21175        54.44900        -0.64116
C         49.01122        55.12660        -0.81920
C         52.43721        20.30645         1.71079
C         51.22582        20.99127         1.59249
C         52.50724        23.14094         1.61896
C         51.24140        22.43262         1.56509
C         52.54136        24.54214         1.60338
C         51.27261        25.30019         1.91740
C         52.51425        27.40636         1.24999
C         51.30498        26.75854         1.52010
C         52.56616        28.82804         0.97954
C         51.35194        29.64927         1.12792
C         52.54437        31.59696         0.16202
C         51.31234        31.00222         0.54684
C         52.52761        32.99872        -0.28718
C         51.29615        33.78731        -0.11670
C         52.60880        35.92483        -0.18881
C         51.35629        35.23195        -0.24184
C         52.63808        37.35849        -0.20789
C         51.43184        38.07651        -0.37188
C         52.70649        40.24770        -0.07018
C         51.53735        39.53748        -0.74524
C         52.67475        41.63586         0.17480
C         51.48684        42.40259         0.10111
C         52.74948        44.55741         0.29136
C         51.45917        43.79343         0.43401
C         52.75323        45.99060         0.75246
C         51.54607        46.67356         0.98928
C         52.70800        48.79782         0.68088
C         51.49405        48.08565         0.86161
C         52.71152        50.24274         0.46188
C         51.46557        50.95262         0.32029
C         52.73395        53.00477        -0.16086
C         51.48787        52.34617        -0.03255
C         53.66084        20.98262         1.67712
C         54.97790        23.06718         1.36360
C         53.72374        22.37740         1.56697
C         55.01078        24.48775         1.30173
C         53.77475        25.24951         1.43691
C         55.01668        27.39383         1.18485
C         53.75564        26.64958         1.27371
C         55.00681        28.78506         0.71290
C         53.76252        29.48998         0.64061
C         55.02881        31.57338         0.11717
C         53.76346        30.89192         0.27172
C         55.09516        32.98725        -0.07772
C         53.86204        33.73169        -0.39314
C         55.05352        35.86239        -0.06635
C         53.85110        35.20078        -0.20663
C         55.06952        37.28892         0.28002
C         53.86752        38.07856         0.01817
C         55.17677        40.18102         0.33974
C         53.90928        39.49279         0.13017
C         55.20426        41.59859         0.47263
C         53.92028        42.29922         0.64396
C         55.23730        44.51242         0.63188
C         53.95512        43.79493         0.76975
C         55.23988        45.93238         0.62556
C         53.98209        46.68312         0.73062
C         55.20578        48.84663         0.83515
C         53.94395        48.09553         0.74718
C         55.21657        50.26766         0.48449
C         53.93708        50.94011         0.31888
C         53.91796        52.32810         0.02062
C         57.34610        22.97352         0.78397
C         56.16823        22.33996         1.12451
C         57.41846        24.38490         0.72007
C         56.25018        25.12434         1.02865
C         57.51039        27.22775         0.47519
C         56.33994        26.58784         1.07511
C         57.44596        28.65658         0.19094
C         56.21821        29.44590         0.46667
C         57.51904        31.57198         0.34677
C         56.23636        30.84665         0.25300
C         57.56328        33.01497         0.08491
C         56.33193        33.67824        -0.08032
C         57.64175        35.87697        -0.18482
C         56.32405        35.14346        -0.28030
C         57.66620        37.31548         0.10885
C         56.42479        38.02246         0.39340
C         57.65275        40.17316         0.30288
C         56.41543        39.48794         0.32258
C         57.66153        41.61557         0.33882
C         56.41327        42.32210         0.45476
C         57.65776        44.47387         0.29211
C         56.43335        43.77312         0.49964
C         57.67486        45.89679         0.26778
C         56.47115        46.60943         0.50931
C         57.73134        48.79855         0.28281
C         56.53572        48.06522         0.71064
C         57.66522        50.18154         0.22824
C         56.44274        50.89469         0.31847
C         59.84759        24.34202         0.17074
C         58.66665        25.06032         0.37690
C         59.93426        27.16090        -0.09126
C         58.68294        26.49556         0.21834
C         60.01541        28.59185        -0.08676
C         58.76087        29.35847        -0.07418
C         60.08495        31.51880        -0.01074
C         58.82982        30.80945         0.26471
C         60.07329        32.95199         0.05093
C         58.83459        33.68568         0.04686
C         60.10754        35.81337         0.03919
C         58.88760        35.10967        -0.00863
C         60.12380        37.27337         0.03001
C         58.88307        38.00772         0.09792
C         60.13406        40.12545         0.21625
C         58.89144        39.44583         0.21870
C         60.19761        41.62047         0.41833
C         58.87242        42.32192         0.24941
C         60.07832        44.43015        -0.20706
C         58.88222        43.74387         0.12851
C         60.09756        45.86674        -0.26383
C         58.90522        46.60627         0.01100
C         60.13510        48.68677        -0.35682
C         58.93256        48.03563        -0.03450
C         61.04199        24.99006        -0.18302
C         61.08909        26.36907        -0.30271
C         61.20741        29.33035        -0.17715
C         61.22938        30.73387        -0.22620
C         61.29104        33.68311         0.07864
C         61.31258        35.06018         0.09946
C         61.31903        37.99598         0.05075
C         61.32086        39.39462         0.13691
C         61.27500        42.30327        -0.38625
C         61.22875        43.63925        -0.59385
C         61.29051        46.57284        -0.56560
C         61.30128        47.95825        -0.61450
O         33.55689        50.91455         1.83417
O         47.68190        49.65993         1.86402
O         35.28287        20.90070        -3.89107
O         57.00030        35.59672        -1.51369
O         39.12721        29.10219         0.50658
O         58.26340        31.15698         1.56957
O         50.78112        29.64223         2.49593
O         29.83001        48.28220        -0.84452
O         55.71390        37.51013         1.59046
O         29.74142        44.01947         2.27053
O         56.00626        48.49671         2.00796
O         30.36682        31.37593         0.90729
O         40.74576        19.58924        -2.35566
O         50.14142        41.31463        -1.70517
O         49.24370        27.14567         2.86802
O         25.80797        24.62635        -0.55223
O         35.18321        45.46036        -1.16795
O         31.94932        20.65029        -3.63761
O         42.94448        54.02602         1.26594
O         38.84289        26.15751         0.59006
O         48.43030        22.91625        -0.47462
O         22.88147        45.19797         2.32870
O         35.64752        24.03100        -3.28689
O         30.55529        29.28879        -2.35443
O         37.86998        53.65429        -2.14922
O         53.17701        33.24385        -1.59309
O         55.90642        27.18840         2.34060
O         31.54308        47.48447         2.19586
O         46.94614        37.91170         1.02795
O         46.66130        24.79564         2.30297
O         43.45808        37.55598        -2.40261
O         49.68523        46.13208         2.37163
O         48.00858        44.17142         1.62137
O         24.46402        37.76222        -0.77411
O         38.34775        35.74509        -2.48835
O         47.12727        52.28474        -1.74275
O         53.78012        42.98487         1.95788
O         57.89444        29.00528        -1.19750
O         39.72284        46.16158         1.81682
O         24.78316        34.70494         2.54548
O         31.12033        25.27317        -3.23049
H         31.74554        25.84294        -3.72734
O         38.57725        20.61661         0.32769
H         37.89458        21.26963         0.59252
O         27.53046        30.85099         2.40441
H         27.69988        31.78556         2.65292
O         41.21393        55.84254         1.26035
H         41.65737        55.19512         1.86003
O         51.15141        25.25714         3.37993
H         50.41137        25.87094         3.61586
O         43.05748        39.91744         0.92829
H         43.77455        40.49231         1.27105
O         45.40383        42.17176        -2.42387
H         44.76416        41.57918        -2.89134
O         35.18719        37.37491         1.12217
H         35.99092        36.94999         1.48630
O         26.61850        48.18243         2.48262
H         26.50385        49.13001         2.71007
O         52.94886        44.66210        -1.16496
H         52.27572        45.28238        -1.51738
O         42.31933        28.89337         1.77499
H         42.24486        29.82872         2.06121
O         25.18454        44.41292        -1.10148
H         25.32502        43.49166        -1.41015
O         29.96328        33.12147        -2.33148
H         29.88475        34.05245        -2.62979
O         40.59016        52.92720        -2.15661
H         39.73909        53.18726        -2.58902
O         51.89267        39.50151        -2.16601
H         51.51047        40.32187        -2.56076
O         47.28104        29.19737         2.79001
H         47.94905        28.62392         3.24232
O         47.41068        32.06052         2.32324
H         47.35605        31.16972         2.75272
O         50.03137        48.88650         2.50676
H         49.87198        47.95241         2.80172
O         40.83074        15.52776        -2.12206
H         41.66277        15.02674        -1.98381
O         48.87331        34.97110        -2.04853
H         49.71196        34.51475        -2.27675
O         60.56986        41.80273         1.83438
H         60.57472        42.76768         2.01164
O         30.59367        39.85786         2.15970
H         29.91875        40.39074         2.63250
O         37.11222        24.23942         0.59036
H         37.40514        25.01226         1.13383
O         40.20487        42.02033        -2.31703
H         39.36662        41.62425        -2.63923
O         40.58475        27.52144        -2.37984
H         40.85194        26.63495        -2.70120
O         43.26663        18.68927         2.18275
H         43.87883        18.25522         2.81622
O         38.22837        28.99555        -3.05441
H         37.61340        28.43876        -3.57782
O         37.67600        32.78052         0.54446
H         37.57959        33.61274         1.05238
O         45.49194        20.00262        -1.38965
H         45.73931        20.86468        -1.78756
O         27.69705        37.41573        -1.74955
H         26.74569        37.26611        -1.94335
O         49.89336        46.43948        -0.97667
H         49.64973        45.58442        -1.38640
O         34.18763        38.25129        -2.27600
H         33.39945        38.72089        -2.62012
O         36.13405        51.76915        -2.06587
H         36.49818        52.44902        -2.68143
O         43.76387        40.03640        -2.67019
H         43.49235        39.20260        -3.13289
O         23.09866        32.99313         3.39459
H         23.54876        33.83115         3.66037
O         36.64200        48.04452         2.39220
H         36.51906        48.94880         2.75109
O         25.46706        24.96087         3.07357
H         24.84525        25.41032         3.68453
O         38.52303        20.52568        -3.34553
H         37.82861        20.23870        -3.97526
O         24.37096        39.20794         2.61397
H         24.36645        40.09710         3.02741
O         38.03723        31.93056        -2.99301
H         38.17431        31.03067        -3.37421
H         23.57896        23.16260         1.84392
H         21.44746        24.38017         2.09746
H         21.38303        26.83920         2.15006
H         21.28892        28.69933         2.09743
H         21.20643        31.13448         2.18941
H         21.03199        32.98994         1.41447
H         20.87722        35.35079         0.98132
H         20.75743        37.40743         1.22027
H         20.73118        39.81397         1.06170
H         20.70870        41.70360         0.74231
H         20.66395        44.12074         0.97671
H         20.66114        46.08586         0.85141
H         22.81299        49.72450         0.11655
H         20.70620        48.45703         0.16876
H         25.51716        22.28389         1.78876
H         24.44359        50.71797         0.16326
H         27.38400        21.16548         0.67756
H         26.53031        51.95328         0.16212
H         29.91566        19.47867        -2.65907
H         28.31928        20.39217        -0.97326
H         30.26564        54.15075        -0.10383
H         28.17752        52.92484        -0.04173
H         32.50985        18.18137        -3.89556
H         31.93194        55.11807        -0.17181
H         34.56026        17.00617        -3.14149
H         34.02471        56.27582        -0.59120
H         37.74461        14.95318        -1.10169
H         35.77140        16.16477        -1.85493
H         37.78944        58.40741        -0.77655
H         35.69696        57.18885        -0.41485
H         39.17440        14.04580        -0.24528
H         39.35501        59.16513        -1.83992
H         43.09025        14.19591         1.49984
H         40.93873        13.04326         1.12020
H         43.63542        59.05645        -2.17687
H         41.49899        60.23112        -2.49786
H         44.85657        15.05754         1.53675
H         45.26588        58.20052        -1.82963
H         46.92280        16.28543         1.90103
H         47.37302        57.01763        -1.61279
H         50.75665        18.29362         1.97936
H         48.64434        17.11851         1.68892
H         51.14192        55.02831        -0.70913
H         49.05250        56.21123        -0.99099
H         52.45162        19.21002         1.76479
H         52.76900        54.07249        -0.41229
H         54.57995        20.38407         1.71544
H         54.85983        52.88094        -0.08313
H         58.22817        22.35844         0.56569
H         56.16100        21.24330         1.16397
H         58.56503        50.76664        -0.00599
H         56.49145        51.97719         0.14025
H         59.86495        23.25034         0.28235
H         60.17818        49.78298        -0.39685
H         61.94986        24.39443        -0.35026
H         62.04041        26.85156        -0.56380
H         62.16853        28.80302        -0.25247
H         62.19857        31.22277        -0.39638
H         62.24469        33.13926         0.10984
H         62.28301        35.57110         0.14400
H         62.28638        37.47828         0.01305
H         62.28766        39.91458         0.17386
H         62.15663        41.73241        -0.71071
H         62.06581        44.12973        -1.11023
H         62.22249        46.02644        -0.75945
H         62.23268        48.49068        -0.85170
