         621
 CSIRO Nanostructure Databank - Neutral Graphene Oxide Data Set
C          5.76837        31.67545        -0.51249
C          5.75538        33.04719        -0.51924
C          8.27893        27.39347        -0.39028
C          8.21756        28.77448        -0.22076
C          7.02143        29.52590        -0.38474
C          8.18485        31.68160        -0.07467
C          6.98051        30.92915        -0.30059
C          8.18660        33.06559        -0.20248
C          6.96997        33.80923        -0.39250
C          8.19536        35.98474        -0.33196
C          6.99242        35.21285        -0.42662
C          8.19019        37.39042        -0.29449
C         10.52800        22.94537        -0.36989
C         10.35567        24.26919        -0.67640
C          9.31257        25.22831        -0.42882
C         10.82746        27.39268        -0.48885
C          9.48596        26.61248        -0.38901
C         10.74213        28.73420         0.25239
C          9.42926        29.45721         0.29513
C         10.71115        31.67944         0.41509
C          9.40302        30.95607         0.38196
C         10.74822        33.08841        -0.07348
C          9.46016        33.80893        -0.31037
C         10.66349        35.97096        -0.22571
C          9.46167        35.28411        -0.26956
C         10.66437        37.42631        -0.28755
C          9.39482        38.15205        -0.25707
C         10.62028        40.31894        -0.27782
C          9.40962        39.55810        -0.27667
C         10.67241        41.70446        -0.28663
C         13.46284        18.98787        -0.74496
C         13.34223        20.32310        -0.45678
C         12.11080        21.04823        -0.73793
C         13.01458        23.08682         0.23252
C         11.88291        22.36169        -0.37871
C         13.24558        24.46509         0.25151
C         12.29213        25.34842        -0.37980
C         13.25473        27.37277         0.47983
C         12.09630        26.66418        -0.03249
C         13.20553        28.81801         0.56229
C         12.01477        29.51186         0.40358
C         13.17091        31.71225         0.42487
C         12.00262        30.95140         0.41527
C         13.15697        33.15613         0.38687
C         11.97466        33.85912         0.19804
C         13.11918        36.00203        -0.00611
C         11.93274        35.28521         0.01167
C         13.10431        37.34936        -0.58832
C         11.84719        38.10956        -0.44202
C         13.06043        40.28411        -0.88946
C         11.93640        39.58382        -0.14645
C         13.12761        41.75238        -0.68346
C         11.92632        42.44062        -0.33613
C         13.22704        44.51774        -0.08975
C         11.98549        43.83069        -0.12674
C         13.30586        45.92577         0.19124
C         15.97727        14.74775        -0.80642
C         15.85435        16.12169        -0.38530
C         14.68817        16.80745        -0.59904
C         15.73547        18.89116         0.35985
C         14.46171        18.15095         0.01112
C         15.54434        20.23782         0.92788
C         14.30282        20.94578         0.45214
C         15.70723        23.27523         1.84935
C         13.95252        22.19211         0.88993
C         15.65271        24.56405         1.41731
C         14.57847        25.17420         0.51761
C         15.70478        27.41385         0.79909
C         14.45043        26.68654         0.69611
C         15.73632        28.85337         0.60534
C         14.46263        29.55145         0.78936
C         15.72276        31.74086         0.27224
C         14.47031        31.05846         0.66227
C         15.70050        33.17041         0.26586
C         14.43348        33.87270         0.55982
C         15.66895        36.10108        -0.00078
C         14.40836        35.40706         0.33263
C         15.68516        37.46565        -0.46147
C         14.38837        38.04387        -0.89793
C         15.60859        40.24096        -1.42430
C         14.31300        39.51217        -1.19908
C         15.57018        41.75715        -1.28899
C         14.35171        42.43826        -0.77374
C         15.72909        44.40288        -0.04671
C         14.42092        43.79031        -0.36341
C         15.78736        45.84450         0.33213
C         14.51862        46.61308         0.31860
C         15.83030        48.71709         0.46707
C         14.60148        48.01182         0.50006
C         15.87079        50.11552         0.71064
C         18.24883        10.44801        -0.94974
C         18.35930        11.85071        -0.77178
C         17.17663        12.61121        -0.83218
C         18.14350        14.56879         0.41794
C         17.08816        13.98912        -0.49769
C         18.18380        16.08847         0.42558
C         17.01267        16.80068         0.19299
C         18.17192        18.94054         0.82132
C         16.94891        18.22699         0.46518
C         18.13633        20.26948         1.23611
C         16.83979        20.94631         1.51306
C         18.23239        23.15606         1.91637
C         16.92431        22.41747         1.95339
C         18.18130        24.66036         1.84905
C         16.87569        25.36554         1.56641
C         18.12438        27.56859         1.35520
C         16.88389        26.75430         1.09883
C         18.13345        28.76477         0.44005
C         16.92701        29.54590         0.31749
C         18.09696        31.76841        -0.24002
C         16.92324        31.00547         0.05476
C         18.09006        33.26286        -0.43563
C         16.85912        33.93399         0.08658
C         18.13632        36.07179         0.10948
C         16.85337        35.35711         0.07327
C         18.13611        37.55962        -0.18398
C         16.87000        38.18686        -0.63164
C         18.10080        40.24757        -1.23921
C         16.90452        39.54778        -1.15925
C         18.15356        41.70965        -1.45510
C         16.87850        42.49303        -1.29316
C         18.26107        44.53722        -0.68483
C         17.00947        43.76188        -0.52549
C         18.30545        45.90085        -0.38568
C         17.10857        46.58182         0.17289
C         18.25996        48.76467        -0.00957
C         17.06696        48.05145         0.16325
C         18.28791        50.18442         0.20900
C         17.06481        50.84220         0.64375
C         18.27064        52.95083         1.02323
C         17.09902        52.19743         1.08393
C         18.35222        54.27492         1.50831
C         21.10377         6.48059        -1.96362
C         20.98311         7.76704        -1.46282
C         19.63248         8.28221        -1.20755
C         21.18060        10.70185        -0.79781
C         19.35118         9.62761        -1.32113
C         20.92657        11.91676        -0.17746
C         19.63531        12.60453        -0.47582
C         20.62257        14.58194         0.98228
C         19.50847        13.96873         0.13490
C         20.68673        16.04818         0.62031
C         19.40962        16.79608         0.63704
C         20.69189        18.88938         0.80996
C         19.43546        18.19664         0.72622
C         20.57710        20.38433         0.60089
C         19.48574        20.95842         1.53472
C         20.61167        23.19698         1.28043
C         19.46385        22.47445         1.45486
C         20.61234        24.65351         1.34110
C         19.41319        25.38346         1.47265
C         20.62027        27.44689         0.98916
C         19.39759        26.76303         1.24834
C         20.60659        28.72426         0.36430
C         19.35145        29.11934        -0.13128
C         20.59605        31.80528        -0.40440
C         19.33848        31.22333        -0.61716
C         20.66590        33.21097        -0.20110
C         19.41204        33.95892        -0.11544
C         20.66482        36.10938         0.05355
C         19.40932        35.32405         0.00255
C         20.63461        37.53986        -0.36773
C         19.43455        38.20176        -0.49433
C         20.68354        40.37332        -0.91975
C         19.37364        39.64661        -0.75353
C         20.61025        41.63929        -1.77197
C         19.43128        42.45386        -1.29162
C         20.65114        44.61806        -1.47401
C         19.43744        43.82165        -1.13511
C         20.72787        46.02390        -0.99273
C         19.50524        46.67388        -0.55801
C         20.70254        48.83173        -0.37002
C         19.49228        48.07978        -0.32462
C         20.73297        50.23377        -0.19248
C         19.48383        50.90117         0.07021
C         20.69468        53.13874         0.23264
C         19.42630        52.36178         0.30001
C         20.81076        54.35857         1.09273
C         19.55264        55.01941         1.54179
C         20.83867        57.01933         2.26600
C         19.63015        56.27017         2.16640
C         20.92069        58.20997         2.97760
C         23.77335         3.90818        -2.81162
C         22.53571         4.50229        -2.76892
C         23.64672         6.56163        -1.79396
C         22.39328         5.89850        -2.36002
C         23.41432         7.65182        -0.80631
C         22.17676         8.46719        -0.96630
C         23.23419        10.26666         0.48847
C         22.19096         9.76217        -0.44647
C         23.19589        11.73925         0.85433
C         21.99938        12.55256         0.52838
C         23.16705        14.59175         1.27404
C         21.97036        13.90230         0.86970
C         23.17479        16.03233         1.36701
C         21.98151        16.76817         0.87999
C         23.15941        18.90886         1.23368
C         21.91655        18.23476         0.98838
C         23.21234        20.36373         0.98357
C         21.93379        21.08582         0.65073
C         23.09725        23.18457         1.46666
C         21.89343        22.61974         0.69675
C         23.07271        24.67288         1.57258
C         21.82629        25.37916         1.27420
C         23.13856        27.46696         0.92035
C         21.84781        26.76377         1.15296
C         23.13802        28.87562         0.41224
C         21.81103        29.64503         0.42947
C         23.13462        31.64863        -0.47313
C         21.82080        30.93347        -0.41905
C         23.13167        33.14141        -0.46652
C         21.91355        33.86438        -0.23323
C         23.15026        36.05510        -0.58643
C         21.96532        35.33234        -0.08330
C         23.13115        37.41985        -0.72266
C         21.90793        38.22258        -0.61320
C         23.22845        40.37259        -0.84094
C         21.93394        39.58581        -0.86351
C         23.21732        41.71087        -1.56256
C         21.93237        42.39829        -1.88047
C         23.23457        44.62824        -1.82341
C         21.90934        43.90380        -1.90358
C         23.21595        46.07550        -1.37975
C         21.93674        46.69014        -0.94529
C         23.26599        48.84431        -0.43504
C         21.96458        48.07529        -0.42688
C         23.21083        50.31953        -0.53041
C         21.99967        50.96782        -0.30783
C         23.24353        53.24704        -0.13583
C         21.95635        52.46047        -0.23134
C         23.29177        54.61718         0.40423
C         22.10138        55.14310         1.07743
C         23.33281        57.34012         1.63148
C         22.02332        56.57143         1.49361
C         23.37659        58.39880         2.64677
C         22.16842        58.88389         3.21257
C         23.46466        60.53772         4.46257
C         22.23517        59.98273         4.10593
C         24.95020         4.53813        -2.32040
C         26.03665         6.41960        -1.12129
C         24.90491         5.79175        -1.70601
C         25.96345         7.66910        -0.47561
C         24.62782         8.20106        -0.10414
C         25.79973        10.34140         0.79337
C         24.54707         9.54452         0.55774
C         25.71393        11.80878         1.02440
C         24.45864        12.46576         1.12553
C         25.61453        14.54080         1.82553
C         24.38717        13.85656         1.38132
C         25.57654        16.07005         2.04917
C         24.31927        16.77582         1.69786
C         25.54576        18.97743         1.97311
C         24.32079        18.21239         1.58526
C         25.62453        20.43715         1.72392
C         24.44274        21.10795         1.37281
C         25.54378        23.22965         1.95151
C         24.40837        22.50387         1.51072
C         25.34095        24.62973         2.26866
C         24.31625        25.41537         1.78311
C         25.64568        27.70465         1.51113
C         24.34810        26.89581         1.61712
C         25.62429        29.03829         0.79997
C         24.40662        29.66383         0.44771
C         25.61880        31.65905        -0.31142
C         24.40993        30.98073        -0.07017
C         25.56734        33.01773        -0.92524
C         24.32905        33.80033        -0.70408
C         25.65412        35.92262        -1.29388
C         24.32813        35.24416        -0.99958
C         25.71363        37.39413        -1.04876
C         24.42816        38.12898        -0.90380
C         25.69043        40.26357        -1.60652
C         24.40804        39.55588        -1.32541
C         25.77534        41.74372        -1.23276
C         24.47128        42.50117        -1.43032
C         25.75863        44.59092        -1.50045
C         24.49344        43.85698        -1.60527
C         25.72662        46.01037        -1.16917
C         24.50382        46.71433        -0.99346
C         25.73855        48.76659        -0.56618
C         24.51855        48.10150        -0.74130
C         25.84575        50.25861        -0.75810
C         24.51337        51.04303        -0.68490
C         25.72848        53.06459         0.41214
C         24.53867        52.50599        -0.31015
C         25.82241        54.51634         0.60454
C         24.58780        55.30057         0.51787
C         25.87477        57.12249         1.85831
C         24.62087        56.71090         1.18667
C         25.84907        58.26984         2.67137
C         24.63638        58.90074         3.08301
C         24.65677        59.99520         3.98522
C         27.11193         8.43648        -0.20773
C         28.22431        10.53857         0.37958
C         27.07922         9.75479         0.31540
C         28.18379        11.89937         0.81576
C         26.92185        12.54227         1.12021
C         28.10299        14.65645         1.63271
C         26.91254        13.91466         1.52099
C         28.06583        16.07896         1.89457
C         26.87194        16.77803         1.98246
C         28.11946        19.02419         2.09267
C         26.86336        18.24120         2.18399
C         28.07264        20.42166         2.09005
C         26.83860        21.16796         1.93921
C         28.12293        23.35270         1.92405
C         26.83915        22.60641         1.99230
C         28.24386        24.82383         1.74900
C         27.14722        25.72226         2.07689
C         28.12959        27.63779         0.98688
C         26.93249        26.96054         1.51585
C         28.09687        29.12875         1.02100
C         26.82855        29.74264         0.57371
C         28.13456        31.71073        -0.22905
C         26.85786        31.04990         0.02254
C         28.18825        32.91114        -1.16984
C         26.87795        33.70451        -1.27314
C         28.13371        35.89247        -1.33759
C         26.92737        35.18255        -1.27369
C         28.13731        37.32793        -1.50950
C         26.96162        38.09540        -1.44235
C         28.18814        40.21344        -1.76689
C         26.96991        39.50227        -1.59933
C         28.19636        41.67553        -1.99529
C         26.87387        42.43802        -2.04042
C         28.23781        44.54076        -1.43642
C         26.96669        43.90098        -1.62162
C         28.25343        46.04828        -1.38140
C         26.95222        46.68007        -0.93701
C         28.18316        48.70634        -0.14127
C         26.94345        48.04319        -0.60783
C         28.20113        50.17034         0.06024
C         27.02428        50.86806        -0.01207
C         28.26293        52.93393         0.78649
C         26.98363        52.23454         0.53480
C         28.23793        54.28637         1.09057
C         27.03155        55.07646         1.06988
C         27.04969        56.38486         1.63865
C         29.35720        12.64266         0.89116
C         30.55672        14.71644         1.24554
C         29.36133        14.00945         1.29474
C         30.66908        16.07781         1.73531
C         29.33716        16.82020         2.09351
C         30.59367        18.95659         1.93537
C         29.36718        18.29884         2.03968
C         30.65144        20.41136         2.11494
C         29.32676        21.18465         2.22312
C         30.59732        23.22718         1.46755
C         29.31272        22.62904         1.89537
C         30.65429        24.71525         1.15189
C         29.41416        25.45844         1.38579
C         30.69013        27.68292         1.35744
C         29.42841        26.91647         1.09207
C         30.74962        29.22738         1.22461
C         29.38862        29.88434         0.92115
C         30.61305        31.74526        -0.23719
C         29.34494        31.14637         0.14580
C         30.62275        33.10203        -0.66605
C         29.40077        33.78481        -0.92537
C         30.64353        35.85006        -1.32949
C         29.39456        35.15738        -1.22208
C         30.67804        37.27269        -1.71261
C         29.39145        38.04709        -1.80473
C         30.64791        40.23375        -1.53521
C         29.41541        39.52830        -1.72445
C         30.70440        41.62892        -1.44355
C         29.50060        42.41278        -1.77781
C         30.70397        44.51220        -1.14869
C         29.45271        43.85593        -1.44466
C         30.69178        45.92567        -0.80843
C         29.49796        46.60854        -0.74887
C         30.74092        48.71098        -0.00964
C         29.47583        47.95855        -0.16722
C         30.68676        50.05472         0.34500
C         29.46214        50.80460         0.43120
C         29.46859        52.16806         0.72862
C         31.82441        16.88867         1.40015
C         33.04577        18.99331         1.42878
C         31.83049        18.26348         1.60844
C         33.12059        20.39191         1.50502
C         31.88848        21.13568         1.73486
C         33.16251        23.24402         1.61658
C         31.87790        22.49613         1.61112
C         33.16336        24.75246         1.46839
C         31.92478        25.44183         1.12393
C         33.18620        27.60535         0.77991
C         31.96231        26.90747         1.23637
C         33.09421        28.93462         0.32141
C         31.88720        29.68240         0.33716
C         33.09288        31.69857        -0.43301
C         31.83733        31.01628        -0.14172
C         33.08191        33.09390        -0.75300
C         31.87579        33.78738        -0.85081
C         33.11778        35.89036        -1.36176
C         31.86114        35.18624        -1.18747
C         33.12660        37.33534        -1.44026
C         31.93895        38.00992        -1.49825
C         33.13172        40.18155        -0.87505
C         31.85502        39.45289        -1.18899
C         33.11724        41.65099        -0.90432
C         31.93396        42.33651        -1.14281
C         33.14998        44.50987        -0.87617
C         31.91067        43.79905        -1.07892
C         33.15352        45.85841        -0.59310
C         31.93753        46.60786        -0.47718
C         31.94794        47.96693        -0.15465
C         34.32274        21.08614         1.24020
C         35.57743        23.18008         0.94833
C         34.41023        22.50537         1.28694
C         35.72840        24.64127         0.99132
C         34.44902        25.49200         1.24501
C         35.61449        27.47617         0.29889
C         34.40615        26.86609         0.71244
C         35.61765        28.86421        -0.05502
C         34.29856        29.52659        -0.38116
C         35.57079        31.76728        -0.13791
C         34.30409        31.02408        -0.30376
C         35.55527        33.27963        -0.31586
C         34.38085        33.70597        -1.21908
C         35.58067        35.90053        -1.41310
C         34.31990        35.20871        -1.33654
C         35.69122        37.29035        -1.34216
C         34.43195        38.08846        -1.61227
C         35.62688        40.17110        -0.85851
C         34.40859        39.46843        -1.02172
C         35.62460        41.54908        -0.60734
C         34.36887        42.36240        -0.44059
C         34.45536        43.76655        -1.06439
C         36.84289        25.32692         0.35252
C         38.05454        27.42739        -0.09738
C         36.84971        26.72209         0.20948
C         38.06946        28.82064        -0.21112
C         36.81891        29.53428        -0.23284
C         38.12192        31.73463        -0.51468
C         36.85927        31.02150        -0.21141
C         38.13460        33.11165        -0.77573
C         36.86111        33.81365        -0.89806
C         38.57618        36.13241        -1.17170
C         36.74778        35.04218        -1.49510
C         38.19337        37.37567        -0.72276
C         36.92068        38.02433        -1.04983
C         36.85860        39.40432        -0.86562
C         39.29258        29.56546        -0.31800
C         40.58272        31.66503        -0.47838
C         39.32963        30.95372        -0.44424
C         40.60847        33.02452        -0.55695
C         39.41761        33.82437        -0.75112
C         39.58558        35.21448        -0.71861
O         19.74721        53.22708        -0.86812
O         24.83710        27.69905         2.73507
O         16.63828        46.07626         1.48639
O         10.26912        33.26448        -1.44950
O         21.74305        54.19558         2.20746
O         33.16838        24.10375         2.80912
O         31.36214        27.27723         2.57853
O         16.54012        43.55872         0.84910
O         22.79642        20.62328        -0.42242
O         19.33867        29.97250        -1.23197
O         14.45383        34.80101         1.67422
O         30.07299        37.54144        -3.03327
O         20.39785        10.38730        -1.90002
O         30.50977        23.71401         0.05642
O         23.30194        45.69144        -2.80949
O         23.74246         7.22421         0.55387
O         15.45207        41.08926        -2.58518
O         17.48417        42.38324        -2.59927
O         26.03082        33.11137        -2.32360
O         18.13168        37.06565         1.19827
O         22.55072        30.98306        -1.66867
O         24.74544        35.56280        -2.38517
O         36.27644        31.44283         1.12275
O         28.65832        48.00792         1.08019
O         24.79516        39.85310        -2.69385
O         32.25990        39.64568         0.23349
O         11.45562        24.82865        -1.36604
O         17.45634        25.28339         2.95053
O         22.73221        41.76999        -2.93495
O         24.72868        56.56925        -0.23417
O         23.28514        27.75901        -0.52289
O         26.30475        25.23978         3.07106
O         28.61599        29.84672         2.18680
O         19.97073        40.46403         0.34815
O         24.64425        52.10941        -1.70286
O         15.88242        20.22977         2.35697
O         22.46051        53.16904        -1.40173
O         25.28060        37.86111         0.28711
O         22.77898        23.76499         2.75603
O         35.40535        25.27369         2.29559
O         21.50492        35.84049         1.22201
O         25.49327        15.13201         3.16034
O         22.72811        48.28846         0.82943
O         29.01740        42.07907        -3.14248
O          9.92477        31.49816         1.64393
O         37.81005        35.58066        -2.22362
O         13.31833        39.80829        -2.23082
O         14.50255        30.41293         1.98777
O         22.42356        57.54943         0.50059
O         25.16498         9.55602         1.87171
O         30.11632        20.85579         3.41107
O         13.71629        37.27764        -1.95741
O         14.50607        22.62335         2.08443
O         21.94596        23.11531        -0.61113
O         23.22422         6.86174        -3.14127
O         17.71903        22.58336         3.17769
O         21.00890        44.45336        -2.90320
O         26.01507        18.63395         3.31869
O         19.81106        13.84219        -1.27136
O          9.95269        28.74614         1.47506
O         28.80553        27.16603        -0.23551
O         30.17526        16.25826         3.11761
O         26.00948        52.31564         1.65804
O         21.57174        16.32694        -0.49185
O         22.78115        10.67525         1.80974
O         21.73028        30.20356         1.78460
H         21.58599        29.47567         2.42697
O         26.28027        50.31306        -2.15836
H         25.93958        51.15877        -2.53785
O         10.99176        27.72253        -1.89319
H         11.07926        26.87276        -2.37852
O         17.96805        33.42641        -1.91027
H         18.63033        32.83781        -2.33505
O         26.13752        41.79124         0.16588
H         25.35920        41.47013         0.68193
O         34.21234        42.58720         0.99781
H         34.00708        41.72312         1.41484
O         18.03160        28.03378         2.74278
H         17.84907        27.23034         3.28826
O         15.24765        25.03593        -0.80403
H         14.68368        25.48028        -1.47381
O         13.80604        17.87242         1.31231
H         13.90015        18.67643         1.86892
O         26.43544        42.42126        -3.41322
H         27.23584        42.51473        -3.97712
O         28.36564        46.46166        -2.80226
H         27.57409        46.11951        -3.27202
O         34.73673        43.66333        -2.46705
H         33.93530        43.33130        -2.92196
O         34.66984        33.14871        -2.53488
H         33.98218        33.46274        -3.15910
O         20.07468        20.59084        -0.74062
H         20.85039        20.73328        -1.32821
O         28.44861        32.34106        -2.48904
H         27.57209        32.25989        -2.93740
O         20.26525        14.53713         2.38185
H         20.00442        13.62359         2.62123
O         34.10427        29.20656        -1.81956
H         33.28274        29.65656        -2.11319
O         31.14430        29.75114         2.51235
H         30.37601        29.65274         3.11853
O         34.47988        38.34942        -3.08073
H         35.38014        38.68197        -3.28887
O         20.26949        41.16636        -3.09575
H         20.35206        41.91712        -3.72211
O         23.47991        40.71825         0.56030
H         23.32443        39.92053         1.11187
O         19.83778        20.61788         2.89516
H         19.19084        21.07457         3.48258
O         35.33208        33.87858         0.97392
H         35.79128        33.30820         1.63311
O         12.32761        39.65760         1.26705
H         11.57439        39.34097         1.80944
O         17.76441        14.13740         1.75961
H         16.93017        14.59449         1.99778
H          4.83091        31.11883        -0.65822
H          4.80723        33.58600        -0.66249
H          7.33832        26.85714        -0.59598
H          6.09794        28.98603        -0.64522
H          6.03713        35.75138        -0.52508
H          7.22711        37.92319        -0.31160
H          9.70101        22.33047         0.01497
H          8.29495        24.84415        -0.24940
H          8.45213        40.09904        -0.33477
H          9.73642        42.28373        -0.25114
H         12.66857        18.47330        -1.30692
H         11.29480        20.47437        -1.20192
H         11.06001        44.38933         0.07742
H         12.36561        46.48981         0.28571
H         15.15074        14.30335        -1.38150
H         13.83595        16.30506        -1.08135
H         13.67084        48.58763         0.61531
H         14.94659        50.63056         1.01203
H         17.24747         9.99875        -0.86138
H         16.26804        12.11939        -1.21450
H         16.18912        52.63692         1.51900
H         17.44770        54.72727         1.94276
H         20.19164         5.89847        -2.16429
H         18.84688         7.56195        -0.93660
H         18.71935        56.69435         2.61512
H         20.02447        58.58845         3.49141
H         23.85504         2.87150        -3.16882
H         21.63147         3.92314        -3.00583
H         23.49496        61.39104         5.15420
H         21.30489        60.38820         4.52841
H         25.89616         3.97819        -2.33074
H         27.02356         5.95148        -1.25706
H         26.80171        58.66632         3.05402
H         25.62284        60.40610         4.31043
H         28.08978         8.02937        -0.50735
H         29.19107        10.11597         0.06808
H         29.17748        54.79227         1.35869
H         27.98492        56.73998         2.09592
H         30.31645        12.16594         0.64197
H         31.44566        14.24316         0.80248
H         31.62797        50.58932         0.54597
H         30.42373        52.67371         0.93502
H         32.70949        16.39545         0.97243
H         33.95982        18.42295         1.20637
H         34.11060        46.37772        -0.43328
H         32.91137        48.47281         0.00969
H         35.22740        20.50698         1.00224
H         36.44426        22.59221         0.60902
H         36.58088        42.05514        -0.40548
H         35.29682        44.33301        -0.59695
H         37.72427        24.74438         0.04396
H         38.99971        26.86677        -0.14837
H         38.84394        37.90491        -0.01017
H         37.78648        39.94345        -0.62288
H         40.24329        29.01246        -0.27550
H         41.51828        31.09356        -0.39370
H         41.57410        33.55129        -0.53114
H         40.55101        35.60796        -0.36162
