         272
 CSIRO Nanostructure Databank - Neutral Graphene Oxide Data Set
C        -11.09640         0.61563         1.05830
C         -9.99966         1.48452         0.46250
C         -8.69101         0.69805         0.47816
C         -7.40357         1.43603         0.38895
C         -6.26796         0.78879        -0.40457
C         -4.94710         1.54662        -0.24241
C         -3.67315         0.83299        -0.51596
C         -2.48922         1.56002        -1.10727
C         -1.20462         0.81831        -0.85724
C          0.03733         1.59938        -0.61967
C          1.30678         0.83769        -0.59701
C          2.49676         1.49296        -1.18212
C          3.79419         0.71049        -1.26021
C          5.06170         1.47351        -1.05041
C          6.37579         0.75260        -0.91679
C          7.57980         1.48138        -0.41867
C          8.77417         0.69021         0.05293
C          9.63742         1.33148         1.13722
C         10.89953         0.49104         1.29332
C         -9.85268         2.87125         1.15575
C         -8.64432         3.68054         0.67712
C         -7.35786         2.93651         0.57912
C         -6.11805         3.70963         0.23382
C         -5.04831         3.01332        -0.56177
C         -3.86428         3.76640        -1.08096
C         -2.53264         3.08765        -1.42440
C         -1.30728         3.82622        -0.88500
C         -0.01132         3.10546        -0.72280
C          1.33434         3.84554        -0.73100
C          2.47940         2.98481        -1.30753
C          3.84064         3.65160        -1.28107
C          4.80983         2.84807        -0.41750
C          6.06519         3.53711         0.11607
C          7.39190         2.83808         0.19674
C          8.58886         3.61430         0.65272
C          9.90341         2.82155         0.76161
C         -8.69434         5.02088         0.41819
C         -7.52770         5.86586         0.11665
C         -6.15618         5.23305         0.32494
C         -4.93677         5.96293        -0.25246
C         -3.90572         5.30534        -1.16786
C         -2.57250         6.04880        -1.01475
C         -1.26493         5.33365        -1.00935
C          0.00229         5.99005        -1.52203
C          1.28430         5.19351        -1.46545
C          2.61939         5.93120        -1.53981
C          3.92020         5.13701        -1.34341
C          5.13966         5.81688        -0.73088
C          6.15085         5.05590         0.11371
C          7.06917         5.57001         1.26394
C          8.43559         4.88032         1.11355
C         -7.57504         7.24061        -0.06601
C         -6.39554         8.12001        -0.44836
C         -5.03170         7.43510        -0.44250
C         -3.89738         8.23483        -1.05194
C         -2.60998         7.52268        -1.32693
C         -1.28132         8.24450        -1.20311
C          0.02640         7.51595        -1.47512
C          1.32361         8.18347        -1.03541
C          2.60342         7.41310        -1.29246
C          3.90632         8.00734        -0.90574
C          5.01751         7.28857        -0.65593
C          6.45130         8.08595         0.95745
C          7.08235         7.06439         1.59173
C         -6.21352         9.42705         0.30208
C         -5.07130        10.12221         0.18264
C         -3.82990         9.69439        -0.59023
C         -2.58642         9.90561         0.33122
C         -1.26365         9.37981        -0.23531
C         -0.11358         9.79446         0.35067
C          1.24779         9.36225        -0.05998
C          2.35532         9.69152         0.89303
C          3.67875         9.69275         0.57525
C          4.76961         9.91919         1.53944
C          5.96431         9.27691         1.67420
C        -11.11098        -0.72704         0.94255
C        -10.01787        -1.49576         0.28714
C         -8.75721        -0.73507         0.01074
C         -7.46133        -1.50698        -0.03932
C         -6.18855        -0.73590        -0.18756
C         -4.86313        -1.41648         0.04690
C         -3.62737        -0.69408        -0.37660
C         -2.44143        -1.40745        -1.03879
C         -1.22157        -0.65992        -0.48142
C          0.05289        -1.38361        -0.18807
C          1.35372        -0.63438        -0.27155
C          2.64242        -1.39847        -0.29689
C          3.79039        -0.80194        -1.07892
C          5.09693        -1.52795        -1.05531
C          6.32352        -0.74244        -0.60538
C          7.64266        -1.47425        -0.81383
C          8.80785        -0.78631        -0.14469
C          9.61572        -1.60293         0.84940
C         10.89512        -0.84808         1.16439
C         -9.95761        -2.98069         0.34401
C         -8.76129        -3.68117         0.37692
C         -7.51182        -2.86340         0.71279
C         -6.15413        -3.64527         0.42252
C         -4.90006        -2.91971         0.04808
C         -3.70638        -3.66872        -0.48850
C         -2.43911        -2.94100        -0.84798
C         -1.09282        -3.64477        -0.79680
C          0.14454        -2.86012        -0.49456
C          1.33394        -3.58800         0.07718
C          2.68253        -2.85573         0.27206
C          3.91586        -3.65740        -0.16408
C          5.16471        -2.98129        -0.63896
C          6.34690        -3.75685        -1.23539
C          7.66123        -2.96747        -0.93976
C          8.83679        -3.69084        -0.35630
C          9.75892        -3.05272         0.40125
C         -8.70397        -5.10743         0.44580
C         -7.50352        -5.85656         0.32365
C         -6.27503        -5.11943        -0.23378
C         -4.93488        -5.86388         0.05348
C         -3.64723        -5.12844        -0.13063
C         -2.40491        -5.87831        -0.51266
C         -1.09805        -5.16130        -0.68366
C          0.19790        -5.90699        -0.35978
C          1.34993        -5.07530         0.13763
C          2.66427        -5.76672         0.26135
C          3.81168        -5.13761        -0.12602
C          5.08837        -5.87801        -0.26853
C          6.35385        -5.21159        -0.70678
C          7.61855        -5.84255        -0.07907
C          8.87580        -5.17833        -0.67797
C         -7.42849        -7.23217         0.52358
C         -6.26445        -8.05054         0.12928
C         -4.97049        -7.34746        -0.18704
C         -3.66838        -8.09189         0.00163
C         -2.39204        -7.33570        -0.10415
C         -1.18282        -7.67742         0.74296
C          0.17396        -7.32989         0.18332
C          1.36395        -7.92130         0.91519
C          2.64376        -7.10691         0.91904
C          4.01268        -7.67763         1.21616
C          5.21283        -7.15400         0.51420
C          6.36103        -8.00942         0.06831
C          7.51815        -7.35268        -0.24349
C         -6.14743        -9.50300         0.44892
C         -4.97404       -10.13441         0.63703
C         -3.64272        -9.41643         0.79792
C         -2.41854       -10.16526         0.22548
C         -1.14350        -9.92852         0.57360
C          0.07493       -10.24278         1.00194
C          1.40623        -9.48003         1.13112
C          2.48140       -10.06387         0.19430
C          3.78818        -9.80246         0.45285
C          4.99634       -10.14374        -0.29744
C          6.14122        -9.40059        -0.33845
O         -3.34358        -3.49485        -1.87514
O         -7.81814         0.80166         1.64278
O          6.45045         5.43232        -1.26064
O          1.72159        -7.14356         2.07889
O         -4.01924         1.35119         0.83057
O         -6.38519        -4.92099        -1.55620
O          9.56435         0.09087        -1.02305
O          7.34653         1.29677        -1.84553
O          2.65955         6.85350        -2.65565
O          2.15837         2.16983        -2.45015
O          4.03176         9.40618        -0.75716
O         -4.12341        -5.51229         1.19757
O          5.60793        -6.06344        -1.62607
O         -6.80724        -1.46071        -1.32702
O         -5.80406        -7.76629        -1.26922
O         -0.62670         8.30166        -2.50831
O          4.54823         1.22843        -2.38568
O         -1.82311         5.89310         0.22587
O         -1.74944         0.96129        -2.19562
O          4.33075        -1.42509        -2.28435
O         -7.58154        -2.61403         2.04298
O         -0.87003        -1.01130         0.87729
O         -4.94470         3.27856        -1.97457
O          4.96897        -6.89854         1.95792
O         -0.85880         3.47188         0.43574
O         -4.46837         6.87502         0.78389
O          0.41528        -7.05309        -1.21803
O         -5.19368        -3.43781         1.40176
O          5.04297        -3.25254         0.76736
O         -1.29498        -7.67663         1.97651
O         -3.47190         7.98588        -2.41643
O          0.93988        -4.29305         1.30393
O         -6.30531         3.18026         1.57322
O          6.19436         8.01218        -0.41594
O          2.27408        -0.61119         0.87515
O         -3.88103        -1.00524         1.02595
O         -1.83925        -5.69894        -1.82490
O          0.74793         1.40360         0.64850
O          4.27946         4.28798        -2.48477
O          4.06115        -9.02989         1.60569
O         -9.67098        -0.97721        -1.08763
O          7.97236        -2.08685        -2.07791
O          6.43063         2.80013         1.33299
O          0.51380         5.27629        -2.68689
O          1.46426         9.55586        -1.48742
O         -0.18427        -3.19435        -1.86910
O         -6.36137         5.63794         1.65903
O         -2.82077        -8.19020        -1.19151
O         -9.71737         2.67586         2.56233
H         -8.87826         2.18518         2.72548
O         -3.69214        10.54769        -1.74088
H         -3.31416         9.99659        -2.46674
O        -10.31341         1.74460        -0.92173
H        -10.37631         0.87207        -1.37915
O         -3.52945        -9.16891         2.19606
H         -2.68214        -8.69001         2.38494
O          6.15070        -0.70312         0.84895
H          5.84891        -1.58285         1.18411
O         -2.41063         3.24913        -2.85248
H         -3.10135         2.70296        -3.28674
O          7.63290        -5.50059         1.32178
H          6.88137        -5.94231         1.77658
O          1.78740        -9.71114         2.48874
H          1.92429        -8.84036         2.92975
O         -6.60608         1.02159        -1.78960
H         -6.96954         0.18058        -2.16190
O          8.91188         1.31380         2.38038
H          8.70032         0.37202         2.58553
O         -4.37043         5.60310        -2.49982
H         -3.83756         5.08656        -3.14253
O          4.00332         2.58374         0.76792
H          4.61378         2.30346         1.49026
O          8.82035        -5.35668        -2.09486
H          9.54010        -4.83565        -2.50683
O         -2.51610        -1.21089        -2.45239
H         -2.94018        -2.00273        -2.85640
O         10.63423         2.87299        -0.46168
H         10.20546         2.29205        -1.12592
O          2.86723        -2.76883         1.68775
H          2.13649        -2.24117         2.07636
O          6.50034         5.07240         2.50405
H          6.61285         4.09123         2.53191
O         -2.47246        11.29777         0.60722
H         -2.56253        11.76370        -0.25301
O         -6.68077         8.46855        -1.83307
H         -6.08274         9.19948        -2.10100
O          6.15265        -3.79582        -2.64311
H          6.88646        -4.31068        -3.04109
O          1.69025         4.17881         0.62183
H          1.46364         3.40637         1.19099
O          8.80576        -1.61990         2.07037
H          9.20439        -2.26189         2.69548
H         11.82452        -1.42060         1.31293
H         11.83614         1.01010         1.54977
H         10.54051         3.29625         1.54914
H          9.30969         5.40026         1.53761
H          7.30682         7.23194         2.65826
H          6.56177         9.55567         2.55891
H          4.53447        10.66082         2.32198
H          2.05096         9.91946         1.92520
H         -0.18421        10.55714         1.14223
H         -2.78192         9.38111         1.30435
H         -4.97999        11.09515         0.69119
H         -7.04910         9.83310         0.89238
H         -8.56365         7.71768        -0.17100
H         -9.66873         5.53381         0.47012
H        -10.78863         3.45740         0.98141
H        -11.92980         1.12023         1.56992
H        -11.94092        -1.30392         1.37866
H        -10.91278        -3.53080         0.29578
H         -9.65700        -5.65934         0.52078
H         -8.26614        -7.74697         1.02239
H         -7.08085       -10.08807         0.45264
H         -4.98224       -11.21723         0.83447
H         -2.59896       -10.68617        -0.73448
H          0.13504       -11.19144         1.57308
H          2.18436       -10.65204        -0.68507
H          4.99446       -11.10179        -0.84098
H          6.99214        -9.84375        -0.88186
H          8.36988        -7.90287        -0.67273
H          9.80799        -5.64599        -0.25451
H         10.59910        -3.63309         0.81963
