         621
 CSIRO Nanostructure Databank - Neutral Graphene Oxide Data Set
C          5.69060        31.68123        -0.90651
C          5.76746        33.00708        -0.65336
C          8.17452        27.37739        -1.14634
C          8.15704        28.74402        -1.29774
C          6.79540        29.41412        -1.33396
C          8.15838        31.65309        -1.55807
C          6.84178        30.92657        -1.44580
C          8.19495        33.08112        -1.19356
C          7.00494        33.75488        -0.80677
C          8.25877        35.84896        -0.59517
C          7.05944        35.11121        -0.46128
C          8.33685        37.20676        -0.14992
C         10.75314        23.16742        -0.38140
C         10.67842        24.56017        -0.51969
C          9.44795        25.26826        -0.77846
C         10.61847        27.42349        -0.99086
C          9.40125        26.64966        -0.96564
C         10.63248        28.76867        -1.30083
C          9.39324        29.49470        -1.41261
C         10.67547        31.63094        -1.50734
C          9.42675        30.89323        -1.51123
C         10.67255        33.07001        -1.50506
C          9.41550        33.78254        -1.28046
C         10.59655        35.96886        -1.47584
C          9.42049        35.17948        -1.08124
C         10.64509        37.41775        -1.02114
C          9.51694        37.94918        -0.22288
C         10.84889        39.97089         0.25524
C          9.65407        39.22590         0.36594
C         10.93345        41.28579         0.75701
C         13.32005        18.99927         0.29967
C         13.26719        20.43988         0.18296
C         12.05326        21.09270        -0.03571
C         13.17942        23.26582         0.12528
C         11.98553        22.50809        -0.10113
C         13.08128        24.69189         0.02799
C         11.87971        25.31307        -0.33513
C         13.15348        27.50854        -0.62509
C         11.84412        26.77068        -0.49446
C         13.19260        28.85541        -1.22217
C         11.91114        29.46662        -1.71840
C         13.14927        31.66722        -1.55912
C         11.90814        30.95964        -1.53960
C         13.13622        33.09757        -1.60793
C         11.87875        33.77382        -1.60233
C         13.13736        35.96731        -1.65594
C         11.85032        35.23948        -1.96799
C         13.08842        37.47536        -1.76100
C         11.94378        38.10472        -0.96846
C         13.21332        40.15842        -0.50030
C         12.00588        39.36703        -0.40747
C         13.26268        41.43940         0.00658
C         12.11267        42.06877         0.63296
C         13.33154        44.24446         0.79821
C         12.18931        43.40658         1.06720
C         13.36595        45.64449         1.04913
C         15.89635        14.86332         0.88841
C         15.82347        16.25727         0.55988
C         14.60523        16.92034         0.51686
C         15.77290        19.11767         0.02406
C         14.52005        18.32784         0.30747
C         15.74648        20.47587         0.72740
C         14.46683        21.20463         0.36391
C         15.66057        23.35354         0.76564
C         14.42812        22.59249         0.36243
C         15.49325        24.86913         0.69431
C         14.29085        25.47252         0.10314
C         15.66953        27.37522        -0.77411
C         14.37822        26.74396        -0.41477
C         15.65901        28.79309        -1.28050
C         14.37918        29.53657        -1.34851
C         15.63460        31.69543        -1.56221
C         14.40358        30.97565        -1.54525
C         15.61171        33.13312        -1.64395
C         14.36830        33.82265        -1.65324
C         15.60762        35.98942        -1.69453
C         14.33823        35.27867        -1.64637
C         15.60698        37.44281        -1.60613
C         14.41553        38.11834        -1.46056
C         15.68355        40.28417        -1.18822
C         14.36717        39.57216        -1.23302
C         15.79200        41.56870        -0.44681
C         14.53107        42.19934         0.03699
C         15.51161        44.46905        -0.40006
C         14.46922        43.64944         0.21175
C         15.57450        45.89119        -0.06244
C         14.49534        46.44413         0.69272
C         15.77630        48.55770         0.71531
C         14.60644        47.81229         1.00793
C         15.90205        49.79605         1.41822
C         18.31004        10.56837         1.59890
C         18.26441        11.96718         1.00258
C         17.11266        12.80810         1.52101
C         18.33418        14.85475         0.58838
C         17.09126        14.19817         0.94964
C         18.31588        16.26586         0.38137
C         17.07033        16.98328         0.39186
C         18.26768        19.11138         0.17973
C         17.05464        18.37132         0.25272
C         18.23813        20.55347         0.23079
C         17.01526        21.27932         0.47200
C         18.27811        23.37398         0.61540
C         17.00648        22.66323         0.67293
C         18.45634        24.74696         0.96336
C         16.63135        25.79145         0.76888
C         18.10809        27.67544         0.04330
C         16.86056        26.86522        -0.04766
C         18.21270        28.93608        -0.77075
C         16.95067        29.56323        -1.33866
C         18.12161        31.75264        -1.44067
C         16.90688        31.03244        -1.45506
C         18.10346        33.16827        -1.69920
C         16.85435        33.85363        -1.75083
C         18.02992        36.03328        -2.21325
C         16.80375        35.29103        -1.83270
C         18.07735        37.48024        -1.98754
C         16.89632        38.15397        -1.61549
C         18.18254        40.27634        -1.17908
C         16.92207        39.54069        -1.36160
C         18.17404        41.76439        -1.12920
C         16.98441        42.36978        -0.79340
C         17.95698        44.64684        -1.24105
C         16.79983        43.80404        -0.92568
C         17.65149        45.98510        -1.33528
C         16.66672        46.66623        -0.50899
C         18.09594        48.85309        -0.26775
C         16.85061        48.02089        -0.07341
C         18.22251        50.11764         0.61588
C         17.11080        50.46510         1.52413
C         18.55122        52.02675         2.75766
C         17.30534        51.43185         2.53996
C         18.73352        52.91853         3.84374
C         20.90649         6.50105         2.58928
C         20.90187         7.71200         1.73806
C         19.65909         8.51135         1.68717
C         20.82358        10.58591         1.02807
C         19.63093         9.84939         1.44520
C         20.77802        11.88548         0.55905
C         19.50010        12.63945         0.49066
C         20.73453        14.81696         0.06944
C         19.53853        14.13124         0.41466
C         20.72893        16.21645        -0.08870
C         19.52455        16.96102         0.09964
C         20.69830        19.14126        -0.14797
C         19.49696        18.40338         0.03824
C         20.66815        20.53513        -0.16734
C         19.45483        21.26019         0.05346
C         20.67079        23.43270         0.02160
C         19.45925        22.69433         0.17844
C         20.69035        24.82359         0.15737
C         19.53166        25.53723         0.54747
C         20.66940        27.76232         0.01055
C         19.45535        27.02527         0.43893
C         20.67403        29.09247        -0.41612
C         19.43070        29.77665        -0.67949
C         20.64049        31.80971        -1.35603
C         19.39150        31.09592        -1.15199
C         20.59052        33.19142        -1.77418
C         19.36252        33.84678        -1.91180
C         20.62792        36.04758        -2.43698
C         19.33761        35.25939        -2.37884
C         20.60898        37.55652        -2.45322
C         19.27281        38.30472        -2.44682
C         20.61251        40.43332        -1.92885
C         19.41170        39.60386        -1.67547
C         20.54271        41.88422        -1.86047
C         19.32556        42.53162        -1.56156
C         20.56498        44.83182        -1.88951
C         19.21219        44.00391        -1.73791
C         20.65179        46.27474        -1.50182
C         19.51781        47.11105        -1.43934
C         20.67501        48.91716        -0.41022
C         19.43575        48.28576        -0.67703
C         20.70376        50.38355        -0.00423
C         19.55045        50.70339         0.92794
C         20.93364        52.42255         2.06466
C         19.67068        51.65402         1.90614
C         21.03098        53.52091         3.09859
C         19.90470        53.65012         4.09790
C         20.93153        55.37303         5.58111
C         19.96848        54.36236         5.32345
C         21.48225        55.84152         6.76416
C         23.26932         4.31296         4.44860
C         22.10096         4.76604         3.86477
C         23.27705         6.86914         3.19931
C         22.04944         6.02788         3.18353
C         23.39161         8.03421         2.24604
C         22.18315         8.41293         1.40623
C         23.13343        10.40924         0.31104
C         22.07450         9.84062         0.95274
C         23.27921        11.81938        -0.05768
C         21.95388        12.54233        -0.08235
C         23.30694        14.69884        -0.43057
C         21.95421        14.02551        -0.30035
C         23.28794        16.21023        -0.53749
C         21.95847        16.92675        -0.53254
C         23.24289        19.14118        -0.23159
C         21.96086        18.42763        -0.48326
C         23.20026        20.51252        -0.14587
C         21.93957        21.25332        -0.40879
C         23.22109        23.45677        -0.04048
C         21.94246        22.74663        -0.31226
C         23.22358        24.85661         0.06698
C         21.95991        25.55332         0.25991
C         23.20683        27.73677        -0.11276
C         21.94162        27.07782         0.21583
C         23.17465        29.08486        -0.58063
C         21.93422        29.76775        -0.72490
C         23.13100        31.76224        -1.62106
C         21.86550        31.11404        -1.21194
C         23.14770        33.18908        -2.11363
C         21.82241        33.89931        -2.35526
C         23.06890        36.10577        -1.98887
C         21.88445        35.38283        -2.06992
C         23.06355        37.56475        -1.99438
C         21.85140        38.28075        -2.09247
C         23.05614        40.47580        -1.94958
C         21.79828        39.71613        -2.02173
C         22.99054        41.91445        -2.35309
C         21.75086        42.65977        -2.04336
C         23.10523        44.74310        -1.84313
C         21.81962        44.04366        -1.88521
C         23.17319        46.13618        -1.19944
C         21.86858        46.90373        -1.19619
C         23.11409        49.06292        -0.88769
C         21.86561        48.25679        -0.77587
C         23.22768        50.27417        -0.06687
C         22.06147        50.80665         0.54403
C         23.50237        52.01620         2.18353
C         22.15888        51.79102         1.52459
C         23.57953        53.26094         3.02832
C         22.42516        53.94620         3.45652
C         23.81340        55.48594         4.81996
C         22.58440        55.10298         4.23354
C         23.94575        56.20687         6.07634
C         22.78616        56.46784         6.90836
C         24.22385        57.53096         8.58702
C         22.96429        57.16642         8.12793
C         24.46565         5.06326         4.41623
C         25.69239         7.10064         3.77099
C         24.52365         6.31777         3.79003
C         25.79657         8.28265         2.99341
C         24.74888         8.61082         2.05726
C         25.96731        10.63006         1.29166
C         24.99868         9.59238         1.11391
C         25.86010        11.94767         0.76708
C         24.63135        12.55025         0.12502
C         25.73153        14.80032         0.13234
C         24.56058        14.04307         0.05111
C         25.71691        16.23821        -0.10533
C         24.53228        16.96129        -0.25309
C         25.68769        19.11673         0.07409
C         24.50167        18.40788        -0.13592
C         25.67682        20.52342         0.48645
C         24.36369        21.27866         0.32031
C         25.62908        23.44475         0.41380
C         24.41134        22.74525         0.17488
C         25.62572        24.85873         0.44744
C         24.42207        25.59590         0.27109
C         25.58528        27.88431         0.50981
C         24.39296        27.02966         0.15754
C         25.76602        29.04306        -0.45873
C         24.47295        29.70000        -0.97500
C         25.53392        31.86548        -1.72492
C         24.43633        31.13603        -1.32707
C         25.60596        33.31076        -1.69421
C         24.38376        33.99332        -1.88841
C         25.57152        36.11007        -1.70910
C         24.34335        35.40473        -1.84287
C         25.53394        37.55122        -1.85839
C         24.33801        38.24887        -1.96295
C         25.56206        40.51175        -2.35715
C         24.35085        39.74179        -1.97160
C         25.55279        41.88097        -2.40824
C         24.28085        42.65774        -2.48732
C         25.55313        44.88268        -2.51853
C         24.27980        44.10959        -2.19248
C         25.64834        46.22754        -1.76693
C         24.30160        46.98881        -1.96530
C         25.66600        49.19910        -1.44388
C         24.33450        48.46037        -1.54547
C         25.73310        50.49643        -0.68924
C         24.50247        51.01814         0.02161
C         25.98500        52.35420         1.71174
C         24.64447        51.99699         1.17398
C         26.09729        53.21101         2.79330
C         24.85491        53.82124         3.29983
C         26.77262        55.19914         5.05133
C         24.90681        55.00682         4.05591
C         26.45003        55.61175         6.31448
C         25.24273        56.35103         6.69697
C         25.34783        57.04484         7.92129
C         26.97426         9.06120         2.94537
C         28.20805        11.04635         2.18427
C         27.05488        10.24087         2.17198
C         28.21893        12.27085         1.50541
C         26.99648        12.81277         0.92642
C         28.22169        14.93100         0.51853
C         26.98531        14.16856         0.51664
C         28.25451        16.25802         0.13261
C         27.00633        16.93811        -0.21730
C         28.20950        19.20316         0.28243
C         26.99062        18.49004        -0.13326
C         28.19256        20.58034         0.50138
C         26.92628        21.31453         0.47594
C         28.15318        23.43484         0.53099
C         26.86986        22.69079         0.54058
C         28.17461        24.92086         0.51789
C         26.86868        25.61112         0.71562
C         28.17073        27.78293         0.30993
C         26.87381        27.09651         0.71449
C         28.06967        29.25564         0.71529
C         26.99991        29.82383        -0.20132
C         28.29974        31.90567        -0.42717
C         27.34515        30.93142        -0.90799
C         28.02908        33.36066        -0.65072
C         26.82795        33.99757        -1.35886
C         28.01598        36.21477        -1.09981
C         26.79307        35.40950        -1.41558
C         28.04721        37.68148        -1.44998
C         26.81816        38.27146        -2.07607
C         28.06907        40.49331        -2.18763
C         26.81669        39.72064        -2.44364
C         28.08699        41.89281        -2.70644
C         26.79769        42.65527        -2.67187
C         28.08177        44.79016        -2.27705
C         26.84823        44.10759        -2.41862
C         28.15625        46.22706        -2.12196
C         26.89209        47.01149        -2.19295
C         28.26212        49.16271        -1.61462
C         26.93145        48.47920        -1.85954
C         28.31067        50.33714        -0.70837
C         27.08339        51.03122        -0.27799
C         28.48148        52.02288         1.62936
C         27.18804        51.94797         0.94970
C         28.48998        52.40859         3.08641
C         27.39531        53.38789         3.46839
C         27.66497        54.16273         4.57300
C         29.42797        12.99815         1.44284
C         30.70106        14.98644         0.86539
C         29.47414        14.28842         0.91260
C         30.77570        16.34451         0.51759
C         29.54634        17.05087        -0.01583
C         30.71550        19.20302         0.64905
C         29.42655        18.41131         0.69925
C         30.67612        20.60353         0.80393
C         29.41535        21.26820         0.77757
C         30.62234        23.48720         1.25314
C         29.35751        22.71078         1.02534
C         30.59428        24.95274         1.04009
C         29.43245        25.66132         0.82586
C         30.57663        27.86250         0.97552
C         29.42860        27.10168         0.78635
C         30.55939        29.31165         0.90707
C         29.39402        29.98214         0.59108
C         30.57926        32.19921         0.60457
C         29.35960        31.40689         0.32294
C         30.56121        33.62879         0.11940
C         29.26838        34.22473        -0.35906
C         30.55150        36.23317        -1.09467
C         29.33429        35.56960        -0.93462
C         30.56728        37.63600        -1.50662
C         29.35979        38.32440        -1.66077
C         30.65926        40.52124        -1.78844
C         29.33276        39.79158        -1.80483
C         30.65826        41.89273        -2.44910
C         29.37669        42.63722        -2.62700
C         30.46005        44.62183        -1.66375
C         29.31934        44.05497        -2.25459
C         30.45343        46.00859        -1.40168
C         29.38546        46.84908        -1.81151
C         30.83740        48.98750        -1.30774
C         29.54859        48.33179        -1.72860
C         30.77361        50.20256        -0.67818
C         29.53471        50.77497        -0.20524
C         29.60414        51.60297         0.97799
C         31.95324        17.07436         0.66738
C         33.16287        19.24709         0.74063
C         31.96298        18.51395         0.64741
C         33.16354        20.66316         0.87542
C         31.90780        21.35443         0.93474
C         33.11836        23.47052         1.20594
C         31.91037        22.76154         1.11903
C         33.09510        24.93091         1.43854
C         31.87380        25.66181         0.99550
C         33.13257        27.88540         1.29723
C         31.87784        27.17007         0.97856
C         33.09385        29.34616         1.40777
C         31.76952        30.11277         1.36122
C         33.05795        32.16355         0.46649
C         31.86823        31.47669         0.68989
C         33.02160        33.53474        -0.04135
C         31.84157        34.22854        -0.29784
C         33.03788        36.24407        -1.10801
C         31.82185        35.57132        -0.84349
C         33.04716        37.60024        -1.60934
C         31.83180        38.28148        -1.76367
C         33.10689        40.42565        -2.53542
C         31.83117        39.68783        -2.24854
C         33.16143        42.00866        -2.64984
C         31.88333        42.62740        -2.04350
C         33.72241        45.02979        -1.69001
C         31.71082        43.87353        -1.53256
C         33.62287        46.41924        -1.92397
C         32.48233        47.16757        -1.50533
C         32.14497        48.48466        -1.73163
C         34.37433        21.40171         0.96794
C         35.59477        23.57729         1.12398
C         34.37638        22.79997         1.12280
C         35.62265        24.96321         1.21445
C         34.37572        25.71867         1.47147
C         35.58523        27.88986         1.07084
C         34.34090        27.19899         1.28196
C         35.60582        29.27474         0.83865
C         34.40041        30.08498         1.09172
C         35.55537        32.06784         0.24382
C         34.34354        31.47391         0.59238
C         35.59101        33.51972        -0.05274
C         34.29701        34.25891        -0.22116
C         35.49530        36.19430        -1.22628
C         34.29325        35.57438        -0.91054
C         35.51524        37.57373        -1.63743
C         34.31297        38.25256        -1.86860
C         35.67353        40.41607        -2.18553
C         34.37096        39.63765        -2.38825
C         35.62353        41.87867        -2.01688
C         34.52111        42.67723        -2.15249
C         34.66829        44.11934        -2.17539
C         36.81259        25.72469         1.01028
C         38.01704        27.82878         0.63517
C         36.80589        27.11764         0.93270
C         38.04256        29.18447         0.41404
C         36.81880        29.95322         0.48658
C         38.06497        32.09093         0.11253
C         36.79114        31.34442         0.26600
C         38.02012        33.45309        -0.47090
C         36.82818        34.09769        -0.61871
C         38.03875        36.19984        -1.20636
C         36.77202        35.39585        -1.38281
C         38.00891        37.56285        -1.32902
C         36.78697        38.29397        -1.59099
C         36.82061        39.66813        -1.67027
C         39.36357        29.81242         0.02428
C         40.51848        32.00336        -0.61059
C         39.36095        31.33052         0.02413
C         40.48576        33.31749        -0.93257
C         39.27216        34.10681        -0.85057
C         39.27012        35.46315        -1.10058
O         19.10448        39.55312        -0.25228
O          7.31273        31.37610        -2.75754
O         28.20255        34.07817         0.62075
O         23.42014        49.25832        -2.34365
O         33.13067        42.35148        -3.95982
O         35.05866        34.33634         1.05892
O         33.66775        25.33793         2.71756
O         21.81932        17.71831        -1.76201
O         15.66646        44.12175        -1.82803
O         10.23560        37.05196        -2.39805
O         26.71375        31.23650        -2.10989
O         17.85753        50.19082        -0.81211
O         26.88972        26.38696         1.98291
O         24.31947        52.47849        -0.14215
O         21.99368        26.35911         1.49539
O         23.22265        32.10295        -3.09191
O         20.70952        53.85152         1.71302
O         19.70673        44.50062        -3.01223
O         29.77825        23.07497         2.39496
O         33.92264        29.89217         2.47984
O         24.17741        12.01031        -1.17609
O         18.64438        27.79178         1.38603
O         27.11013        17.78150        -1.42192
O         14.82106        40.38276        -2.37878
O         15.51402        41.51683         0.98983
O         21.94085        22.07801        -1.63284
O         27.18668        52.48097        -0.41643
O         27.78964        37.25768        -0.07458
O         23.78586        40.26802        -0.69082
O         30.20320        42.17061        -3.78325
O         17.52483        25.40993         1.76730
O         15.32887        24.13460         1.95864
O         31.52226        46.50986        -0.68882
O         23.01551         8.24143         3.66886
O         21.64028         7.45902         0.45333
O         20.77438        36.80328        -3.69322
O         15.75334        19.48594        -1.43137
O         32.27230        39.87091        -3.61419
O         28.31705        24.17753        -0.74528
O         30.48610        33.31220         1.54867
O         17.88917        28.84393        -2.19966
O         15.71629        27.64607        -2.21288
O         29.04258        49.14637        -2.83951
O         18.49023        12.02074        -0.42648
O         18.51021        35.54593        -3.53433
O         38.95563        31.93911         1.28755
O         32.06519        26.37602        -0.27698
O         35.26879        39.87448        -3.50239
O         24.82477        20.81630         1.64514
O         23.45126        15.36334        -1.72303
O         23.48038        45.96364         0.15104
O         32.75360        44.49198        -0.83282
O         18.39240        46.78877        -2.18543
O         21.48071        55.92564         4.40618
O         26.95388        38.70064        -3.48181
O         27.40492        42.16175        -3.95163
O         23.51374        42.22832        -3.68933
O         21.65453        13.10519        -1.39974
O         24.20933         9.60242        -0.03972
O         26.78024        47.99176        -3.23898
O         28.44040        40.42741        -0.77210
O         12.37333        27.53288         0.65576
O         25.32113        28.82551        -1.81292
O         25.58936        50.48494        -2.13675
O         26.05052        55.79552         3.99694
O         11.76370        35.24521        -3.43887
H         10.84318        35.01119        -3.68547
O         25.92255        45.97147        -0.38596
H         25.04375        45.78303         0.08633
O          6.02866        28.90241        -2.43406
H          6.34374        29.36514        -3.24060
O         20.49212        51.14978        -1.21539
H         19.55778        50.99954        -1.49479
O         36.75606        34.99304        -2.80488
H         36.80236        35.81337        -3.34221
O         21.58593        33.87615        -3.79236
H         21.99646        33.04633        -4.13397
O         31.43362        30.42916         2.74467
H         32.28092        30.65660         3.19564
O         18.99310        38.69107        -3.81292
H         19.20013        37.90927        -4.37750
O         25.53266        45.14282        -3.94731
H         25.17004        44.35710        -4.41007
O         12.83747        37.79230        -3.16421
H         12.15479        37.15640        -3.49357
O         29.77915        17.27282        -1.42308
H         28.91593        17.53684        -1.82770
O         11.94117        29.24054        -3.18333
H         12.72634        29.70833        -3.54141
O         27.72706        29.30112         2.11239
H         27.88710        30.20716         2.44886
O         28.24177        27.73903        -1.13877
H         28.48946        26.83218        -1.41990
O         23.93742        46.94262        -3.33643
H         23.69651        47.85099        -3.63050
O         23.76114        50.85853         3.05407
H         23.10158        50.86644         3.77934
O         28.30903        51.19932         3.86336
H         27.38822        50.88954         3.73628
O         25.24489        28.49895         1.78126
H         25.55281        27.88746         2.48852
O         15.67611        18.24431        -2.17939
H         16.55231        18.20614        -2.63455
O         17.25012         9.79350         1.00645
H         17.40480         9.79042         0.03690
O         39.74201        29.34381        -1.28435
H         39.00108        29.50507        -1.90360
O         15.70975        20.21219         2.15519
H         15.60803        21.06913         2.62119
O         15.86376        12.16055         1.29718
H         16.02676        11.18956         1.21936
O         29.19091        18.08464         2.11481
H         29.22330        18.92233         2.62489
O         30.96543        40.79012        -0.38897
H         30.11063        40.88405         0.09215
H          4.76225        31.12756        -0.70196
H          4.89017        33.54666        -0.26690
H          7.22115        26.83026        -1.10237
H          6.24280        29.13850        -0.39597
H          6.15233        35.61768        -0.10069
H          7.45662        37.64507         0.34337
H          9.84598        22.55812        -0.50849
H          8.51224        24.69059        -0.81956
H          8.79786        39.66077         0.90295
H         10.04519        41.72888         1.23193
H         12.37445        18.44488         0.39602
H         11.13610        20.50223        -0.17625
H         11.30354        43.86325         1.53340
H         12.50796        46.12831         1.53761
H         14.97088        14.32379         1.13412
H         13.67632        16.35480         0.68602
H         13.81027        48.29912         1.59035
H         15.06916        50.10448         2.06779
H         18.07107        10.64821         2.69468
H         17.27747        12.91392         2.64766
H         16.46025        51.68625         3.19649
H         17.87776        53.06779         4.52013
H         19.97091         5.92559         2.66761
H         18.72071         8.01294         1.97797
H         19.23136        54.10896         6.10141
H         20.94618        55.63738         7.70459
H         23.27436         3.33576         4.95163
H         21.19138         4.14957         3.89979
H         24.33335        58.09698         9.52190
H         22.07648        57.40197         8.73212
H         25.37122         4.65591         4.88819
H         26.57493         6.75634         4.33084
H         27.09282        55.29270         7.14970
H         26.34375        57.18243         8.36601
H         27.83292         8.78261         3.57318
H         29.10300        10.71882         2.73235
H         29.49119        52.81696         3.36717
H         28.61723        53.99700         5.10266
H         30.34740        12.53568         1.83069
H         31.60872        14.47320         1.21939
H         31.70859        50.71044        -0.39950
H         30.58687        51.71113         1.46163
H         32.88622        16.54728         0.92151
H         34.12373        18.71155         0.72498
H         34.37034        46.91907        -2.55547
H         32.87190        49.19848        -2.14662
H         35.33168        20.86219         0.91344
H         36.54284        23.04150         0.96249
H         36.55078        42.33755        -1.63251
H         35.51739        44.51883        -2.75496
H         37.76047        25.18889         0.84967
H         38.95103        27.25338         0.55033
H         38.94815        38.13533        -1.28395
H         37.75152        40.20900        -1.44287
H         40.16201        29.45446         0.72439
H         41.42865        31.40884        -0.77599
H         41.38344        33.80520        -1.34117
H         40.22191        36.00019        -1.23094
