         324
 CSIRO Nanostructure Databank - Neutral Graphene Oxide Data Set
C          1.21680         2.11231         1.09722
C          1.22808         3.48176         1.28618
C          2.37874         1.37565         0.82007
C          2.53144         4.22615         1.40017
C          1.32058         6.47988         1.50003
C          1.27848         7.84473         1.37370
C          2.45613         5.71027         1.11107
C          2.37400         8.54767         0.62292
C          1.24329        10.79861         0.81679
C          1.25564        12.18209         0.80109
C          2.44435        10.05749         0.77687
C          2.46397        12.90254         0.62332
C          1.31645        15.15315         0.79713
C          1.37233        16.49268         0.97474
C          2.50833        14.33824         0.58414
C          2.71473        17.17646         1.04790
C          2.71203        18.66437         0.80586
C          3.57761         2.05514         0.35646
C          3.61184         3.59051         0.54654
C          4.85679         1.39138         0.17844
C          4.92965         4.26714         0.49840
C          3.67597         6.40189         0.80465
C          3.67601         7.80937         0.78835
C          4.92325         5.68940         0.62096
C          4.94219         8.53107         0.86915
C          3.65538        10.75505         0.65184
C          3.68223        12.16926         0.49400
C          4.94678        10.04806         0.79934
C          4.91603        12.83717         0.15173
C          3.72055        14.97512         0.26841
C          3.68924        16.45226         0.14348
C          4.90592        14.25449        -0.04392
C          4.91578        17.17284        -0.31997
C          3.81848        19.31678         0.39077
C          5.03233        18.63155        -0.04710
C          6.05520         2.10668         0.03752
C          6.07912         3.54708         0.17731
C          7.28397         1.41135        -0.14838
C          7.35631         4.26935        -0.15994
C          6.16070         6.40969         0.47428
C          6.19292         7.82145         0.59283
C          7.38006         5.70266         0.30874
C          7.40697         8.54112         0.47041
C          6.18839        10.71289         0.35752
C          6.12228        12.08293         0.01779
C          7.40136         9.98110         0.30327
C          7.33403        12.72142        -0.52961
C          6.09854        14.97697        -0.46265
C          6.12452        16.35719        -0.54096
C          7.30834        14.19483        -0.85519
C          7.33295        17.10068        -0.95874
C          6.19377        19.29620        -0.29226
C          7.35905        18.59923        -0.87642
C          8.55188         2.03830        -0.04284
C          8.61098         3.48367         0.14823
C          9.73202         1.29833        -0.15521
C          9.79710         4.13410         0.34217
C          8.59798         6.39437         0.43043
C          8.62535         7.80618         0.47521
C          9.83783         5.59555         0.59253
C          9.90441         8.55117         0.48560
C          8.63945        10.66982         0.00565
C          8.62902        12.03099        -0.34561
C          9.88889         9.96444         0.02676
C          9.85979        12.74516        -0.48380
C          8.63530        14.90036        -0.95618
C          8.65934        16.39416        -0.96724
C          9.87294        14.15390        -0.63282
C          9.82713        17.14018        -0.32443
C          8.68444        19.25688        -0.98391
C          9.87844        18.59306        -0.87779
C         11.03517         1.87046         0.15221
C         11.07678         3.39926         0.48614
C         12.27287         1.23456        -0.27784
C         12.35528         4.11938         0.22494
C         11.17373         6.29536         0.63795
C         11.20666         7.79942         0.52017
C         12.38873         5.52401         0.30593
C         12.43138         8.43668        -0.03303
C         11.08480        10.61286        -0.26641
C         11.10405        12.03239        -0.44378
C         12.31872         9.82079        -0.63997
C         12.33660        12.74272        -0.54623
C         11.09053        14.87094        -0.57036
C         11.09170        16.29735        -0.41588
C         12.34292        14.16223        -0.52408
C         12.30590        16.88120        -0.10895
C         11.08754        19.28645        -1.28204
C         12.33502        18.98634        -0.74784
C         13.49006         1.92906        -0.32682
C         13.49908         3.36059        -0.14867
C         14.72081         1.22697        -0.56781
C         14.69151         4.07909        -0.59946
C         13.64381         6.28936         0.19400
C         13.59636         7.74526        -0.10359
C         14.85509         5.51518        -0.25753
C         14.93029         8.45666        -0.29641
C         13.60460        10.60948        -0.57684
C         13.59194        12.02035        -0.61204
C         14.81516         9.90764        -0.72447
C         14.82483        12.73448        -0.69304
C         13.59059        14.88113        -0.47685
C         13.56996        16.27687        -0.31381
C         14.84632        14.16752        -0.59197
C         14.79393        17.12567        -0.30072
C         13.63575        19.27719        -1.20135
C         14.79973        18.53873        -0.81416
C         15.96825         1.86611        -0.69566
C         15.97476         3.32669        -0.91380
C         17.20398         1.19909        -0.63792
C         17.24937         4.07745        -0.81755
C         15.96501         6.19858        -0.99600
C         15.94042         7.67172        -1.13427
C         17.25845         5.48313        -1.00278
C         17.23101         8.37392        -1.46496
C         16.00893        10.60910        -0.98111
C         16.04060        12.02125        -0.89333
C         17.21804         9.88081        -1.43360
C         17.29484        12.73267        -0.95223
C         16.06374        14.86280        -0.63683
C         16.11323        16.33401        -0.46369
C         17.29537        14.15400        -0.84826
C         17.29252        17.04094        -0.96624
C         16.03553        19.14275        -1.06120
C         17.28725        18.45003        -1.06751
C         18.44943         1.90984        -0.54598
C         18.41913         3.36424        -0.53177
C         19.66150         1.22027        -0.50409
C         19.64333         4.13510        -0.32150
C         18.48167         6.23580        -1.00865
C         18.51228         7.65331        -1.25289
C         19.68589         5.55456        -0.70836
C         19.74028         8.35271        -1.18724
C         18.51866        10.61741        -1.45662
C         18.52747        12.04654        -1.10384
C         19.81825         9.82717        -1.38995
C         19.76503        12.72743        -1.07018
C         18.52103        14.84477        -1.04397
C         18.48179        16.28581        -1.31571
C         19.75423        14.16209        -1.11655
C         19.85010        17.06014        -1.37799
C         18.52027        19.15594        -1.13219
C         19.76054        18.49433        -1.06555
C         20.94521         1.84335        -0.00772
C         20.94120         3.37151        -0.14367
C         22.24479         1.20051        -0.44506
C         22.15130         4.11216        -0.57770
C         20.91378         6.26397        -0.61757
C         20.93372         7.66394        -0.87214
C         22.14969         5.56728        -0.44102
C         22.23631         8.34947        -0.87847
C         21.02557        10.58126        -0.99543
C         21.01155        11.98485        -0.98593
C         22.30235         9.87703        -0.95141
C         22.25634        12.70003        -1.09317
C         21.00185        14.86808        -1.28050
C         21.10092        16.30300        -1.16615
C         22.14620        14.04493        -1.45916
C         22.25701        17.02026        -0.74113
C         20.92587        19.14294        -0.63774
C         22.13167        18.43359        -0.41690
C         23.43152         1.87137        -0.46637
C         23.47968         3.35934        -0.56191
C         24.72505         1.22999        -0.60582
C         24.64889         4.09689        -0.13305
C         23.37522         6.26171        -0.24665
C         23.39788         7.65484        -0.31722
C         24.60438         5.50705         0.06145
C         24.39037         8.47434         0.47165
C         23.54423        10.59722        -0.53957
C         23.58613        12.04585        -0.90115
C         24.62120         9.91419        -0.02325
C         24.86126        12.84249        -0.46372
C         23.90413        15.11591        -0.90164
C         23.54651        16.42001        -0.46517
C         24.87232        14.32043        -0.27935
C         24.57948        17.10838         0.21414
C         23.19381        19.12984         0.19135
C         24.41608        18.50582         0.52165
C         25.87282         1.91053        -0.28265
C         25.75255         3.23475         0.45707
C         27.16847         1.32760        -0.49043
C         27.07034         4.01146         0.57283
C         25.71763         6.21760         0.52756
C         25.65825         7.67918         0.79440
C         27.00827         5.51056         0.69053
C         26.94043         8.43202         0.97986
C         25.86106        10.60401         0.33671
C         25.85017        12.10454         0.39838
C         26.98456         9.90665         0.74543
C         27.04234        12.86900         1.01549
C         25.93256        15.02067         0.38347
C         25.82214        16.44970         0.47121
C         27.14538        14.37351         0.80004
C         26.97156        17.24605         0.75006
C         25.49106        19.21869         1.07176
C         26.79182        18.65042         1.09375
C         28.33770         2.04696        -0.37546
C         28.32811         3.44523         0.02631
C         29.62868         1.42885        -0.64286
C         29.45904         4.22568        -0.10392
C         28.26098         6.27001         0.53170
C         28.23225         7.66459         0.99478
C         29.46448         5.63214         0.27122
C         29.52233         8.41514         1.03638
C         28.23199        10.59667         1.04020
C         28.23042        11.99640         1.27987
C         29.47110         9.89100         1.10704
C         29.42174        12.52186         1.81131
C         28.29555        15.19835         0.93971
C         28.24041        16.62623         0.76877
C         29.54594        14.63481         1.44687
C         29.42629        17.51589         0.66985
C         27.88083        19.42128         1.49796
C         29.21643        19.02494         1.09895
C         30.74491         2.17200        -0.77702
C         30.67683         3.67597        -0.81804
C         31.94662         4.33743        -0.36024
C         30.72725         6.36226         0.31548
C         30.76024         7.72490         0.61629
C         31.95079         5.60138         0.10675
C         31.95911         8.51746         0.65289
C         30.70561        10.54747         1.28826
C         30.68815        11.91447         1.69701
C         31.93598         9.82981         1.03641
C         31.88719        12.69884         1.88180
C         30.86131        14.83852         1.11283
C         30.85459        17.12713         0.63139
C         31.96187        14.03490         1.58809
C         31.87509        18.01026         0.84467
C         30.37928        19.78983         1.56105
C         31.64102        19.32970         1.36290
O         24.69206        12.36178        -1.81756
O         14.70265         5.83383         1.13610
O         15.08372         3.77192        -1.98005
O         19.28390        10.32443        -2.66292
O         22.52598         9.04916        -2.15473
O         25.84127        12.54613         1.79508
O          5.04617         9.38289         2.09984
O         31.22730        15.84523         0.20487
O         15.46849         6.84382        -2.23312
O         29.23725        18.59303        -0.30277
O         11.12230         2.42970         1.53431
O         12.29238        18.17697         0.41141
O         19.12089        16.67643        -2.57148
O          8.87538        15.68195        -2.20367
O         23.26785        14.63391        -2.04450
O          7.09499        13.22330        -1.91761
O         15.50057         8.57247         0.98865
O         10.69930         8.43750         1.73516
O          3.21971         3.06258        -0.71192
O         29.33743        13.73102         2.51645
O         17.05219         9.14293        -2.69588
O         27.16356         4.62467         1.89889
O          7.06310        17.90552        -2.15890
O         10.52353         5.85437         1.87242
O         15.65364        16.85592         0.84072
O         20.31937         3.96710         1.02314
O         26.12407         8.05567         2.15113
O         22.80630         3.73276        -1.82954
O          3.77844        16.89460        -1.23424
O         28.94948         7.81936         2.27343
O          3.00166         4.07651         2.78727
H          2.41228         4.60821         3.36261
O         25.32284         2.87379         1.79745
H         25.73533         3.53413         2.40638
O          9.47557        17.25446         1.08204
H         10.22718        17.70121         1.53002
O         30.52133         4.03585        -2.23884
H         29.75535         3.53098        -2.58551
O          2.05276         8.38075        -0.82499
H          1.83675         7.43262        -0.96175
O          3.22824        16.97263         2.40569
H          2.58795        17.36817         3.03332
O         23.67962         8.66505         1.73654
H         24.36756         8.63494         2.44657
O         12.11213         9.54674        -2.07929
H         12.14623        10.40273        -2.55776
O         20.88911         1.53421         1.42541
H         20.41652         2.28963         1.85310
O          7.36205         4.36618        -1.64062
H          6.46582         4.64907        -1.92282
H          0.26935         1.56727         1.22909
H          0.28983         3.99243         1.54506
H          2.37628         0.27980         0.90358
H          0.46435         5.96547         1.96191
H          0.39453         8.39977         1.71580
H          0.28038        10.27375         0.87977
H          0.30188        12.72011         0.88137
H          0.33675        14.65479         0.81409
H          0.45361        17.07462         1.14534
H          1.81687        19.23521         1.09911
H          4.89453         0.29596         0.27309
H          3.81515        20.41638         0.33309
H          7.25033         0.31957        -0.28230
H          6.27316        20.37407        -0.08417
H          9.68546         0.25673        -0.50631
H          8.68689        20.31450        -1.29288
H         12.23305         0.19089        -0.62364
H         10.99915        20.05094        -2.06848
H         14.69376         0.12756        -0.53012
H         13.77865        20.11489        -1.90090
H         17.22111         0.10161        -0.56341
H         16.04612        20.20549        -1.34582
H         19.63185         0.11970        -0.53484
H         18.50063        20.25072        -1.02756
H         22.25842         0.09925        -0.44871
H         20.88607        20.21192        -0.38145
H         24.77703         0.19851        -0.98716
H         23.06446        20.19937         0.41427
H         27.21534         0.28188        -0.83223
H         25.36644        20.27925         1.33418
H         29.66915         0.33157        -0.71651
H         27.72385        20.39860         1.97684
H         31.71379         1.69189        -0.98135
H         32.89282         3.79124        -0.49116
H         32.90876         6.07024         0.37393
H         32.92400         8.05318         0.40693
H         32.88392        10.38100         1.10151
H         32.82494        12.17036         2.10768
H         32.95580        14.50612         1.55567
H         32.90813        17.66433         0.71188
H         30.19798        20.74632         2.07118
H         32.50707        19.93452         1.66456
