         598
 CSIRO Nanostructure Databank - Neutral Graphene Oxide Data Set
C         22.96288        69.83423         1.29177
C         23.00507        71.14665         1.76167
C         21.98525        71.70701         2.56621
C         23.28815        73.73971         2.93668
C         22.12006        72.98897         3.10655
C         25.28933        65.72665         0.35304
C         25.19362        67.08503         0.08446
C         24.04510        67.80262         0.48741
C         25.29447        69.92398         0.39312
C         24.07036        69.20225         0.65508
C         25.30711        71.38977         0.64025
C         24.15032        72.00659         1.38676
C         25.61025        73.88937         2.14250
C         24.36005        73.26351         2.14633
C         27.95329        61.51640         0.61020
C         27.85880        62.95666         0.75085
C         26.58155        63.64942         0.57248
C         27.74468        65.73901        -0.02327
C         26.53259        65.00484         0.32990
C         27.60729        67.03549        -0.56671
C         26.30449        67.82554        -0.63037
C         27.66015        70.01585        -0.17279
C         26.43249        69.28278        -0.12291
C         27.81031        71.19748         0.75545
C         26.62822        72.15199         0.55512
C         28.01879        73.85944         1.70747
C         26.75438        73.32683         1.51801
C         30.07328        57.12052         0.95658
C         29.97668        58.52581         1.12846
C         29.06330        59.39089         0.55303
C         30.42126        61.58955         0.50274
C         29.16419        60.84305         0.63897
C         30.38827        62.97584         0.16862
C         29.16282        63.73840         0.46251
C         30.17251        65.75583        -0.54860
C         29.01716        65.10227        -0.06156
C         30.05502        67.10198        -0.98236
C         28.74167        67.58286        -1.16267
C         30.10839        70.07581        -0.69086
C         28.77761        69.64886        -0.92889
C         30.23219        71.34335        -0.02815
C         29.11519        71.93583         0.57690
C         30.42632        73.90650         1.13276
C         29.19605        73.24907         1.14083
C         32.93516        53.11854         1.37699
C         32.87637        54.51044         1.19728
C         31.55620        55.08441         1.02766
C         33.16441        57.54932         1.27276
C         31.22097        56.39369         1.35025
C         33.07543        58.91094         0.84226
C         31.91600        59.67649         1.06284
C         32.81200        61.54760        -0.22663
C         31.69791        60.93313         0.44706
C         32.72486        62.93220        -0.65107
C         31.50936        63.65428        -0.37960
C         32.47471        65.71204        -1.41081
C         31.44058        65.06280        -0.72281
C         32.38977        67.15953        -1.72723
C         31.22033        67.91206        -1.23391
C         32.56417        69.99675        -1.15051
C         31.26829        69.31542        -1.10327
C         32.60323        71.38106        -0.68989
C         31.49898        72.02216        -0.10737
C         32.78054        74.03299         0.55145
C         31.57733        73.34181         0.50499
C         35.50449        49.07024         2.49952
C         35.46513        50.33773         1.93529
C         34.22074        51.03225         1.75768
C         35.36350        53.11817         1.12216
C         34.15891        52.40234         1.42994
C         35.32977        54.49720         0.90104
C         34.11711        55.24904         1.03308
C         35.34939        57.31898         0.24046
C         34.18138        56.68510         0.85303
C         35.29359        58.70804        -0.17982
C         34.12521        59.47339         0.04720
C         35.09919        61.37759        -1.22129
C         33.98832        60.80677        -0.44134
C         35.02125        62.84750        -1.65241
C         33.80608        63.58046        -1.26295
C         34.96083        65.67420        -2.31917
C         33.67570        64.94730        -1.78458
C         34.89967        67.20275        -2.69957
C         33.64351        67.96329        -2.16036
C         35.01370        70.09958        -1.73310
C         33.71189        69.36237        -1.65736
C         35.11611        71.43361        -1.07404
C         33.84426        72.14383        -0.86359
C         35.25069        74.05259         0.14214
C         33.92706        73.57876        -0.20439
C         38.27544        45.02402         2.01295
C         38.14309        46.33356         2.50259
C         36.93574        47.03357         2.41317
C         38.01536        49.11901         2.39515
C         36.78292        48.43922         2.95576
C         37.95510        50.35195         1.71752
C         36.69503        50.98375         1.54656
C         37.88404        52.98977         0.58404
C         36.59930        52.31749         0.94616
C         37.90266        54.47895         0.55760
C         36.60611        55.22861         0.65340
C         37.70924        57.20346        -0.51907
C         36.52476        56.60156         0.11978
C         37.69751        58.66945        -0.75040
C         36.46112        59.37362        -0.68060
C         37.59146        61.48968        -1.31652
C         36.41295        60.73490        -1.07724
C         37.51917        62.87594        -1.64628
C         36.29466        63.59906        -1.84977
C         37.52912        65.69761        -2.46743
C         36.25973        64.98484        -2.11784
C         37.58137        67.20312        -2.59068
C         36.27078        67.93890        -2.52519
C         37.60477        69.95755        -1.60287
C         36.31219        69.39167        -2.10372
C         37.59955        71.39808        -1.24893
C         36.32390        72.07579        -0.89844
C         37.64554        73.93548         0.18466
C         36.39479        73.38583        -0.25258
C         40.68161        40.71083         1.80040
C         40.69035        42.11257         2.06760
C         39.52148        42.88620         1.88230
C         40.61880        44.85646         2.80199
C         39.47107        44.26330         2.19302
C         40.67656        46.29598         3.13876
C         39.36084        47.02288         3.02294
C         40.58930        49.13120         2.28340
C         39.32099        48.51690         2.71526
C         40.48012        50.23886         1.26349
C         39.19564        51.00725         1.28319
C         40.34548        52.91949         0.18881
C         39.17397        52.28197         0.77315
C         40.28490        54.35018        -0.12717
C         39.13308        55.07855        -0.00672
C         40.27771        57.22934        -0.77647
C         39.01569        56.45488        -0.54028
C         40.14171        58.70888        -0.77948
C         38.87981        59.37349        -0.99174
C         40.08378        61.51771        -1.17708
C         38.87116        60.81381        -1.14402
C         40.08592        62.96922        -1.30182
C         38.76891        63.65420        -1.57003
C         40.09485        65.74028        -2.04843
C         38.82574        64.98667        -2.22453
C         40.11265        67.10884        -2.04383
C         38.93143        67.97094        -2.41853
C         40.03245        69.81995        -1.06715
C         38.80833        69.25369        -1.59268
C         40.06605        71.13097        -0.52373
C         38.89785        72.00611        -0.71469
C         40.02632        73.72042         0.69722
C         38.84122        73.25556         0.07067
C         42.99075        36.39816         1.54962
C         43.01167        37.79214         1.67575
C         41.81556        38.54898         1.72189
C         43.11652        40.57196         2.36764
C         41.82671        39.93600         1.96975
C         43.18707        42.04681         2.70801
C         41.85977        42.72833         2.61700
C         43.61209        45.10170         3.14334
C         41.69030        44.01845         3.11208
C         43.44433        46.55779         2.89033
C         41.99123        47.13306         3.10780
C         43.49148        49.29388         1.39336
C         41.75915        48.56115         2.71247
C         43.00296        50.19393         0.36394
C         41.59458        50.76449         0.35757
C         42.38228        52.79623        -1.18289
C         41.43846        52.16046        -0.19561
C         42.50622        54.27734        -1.29196
C         41.63822        55.03181        -0.27817
C         42.95861        57.04547        -0.83690
C         41.57823        56.47730        -0.75716
C         43.15459        58.41772        -0.60336
C         41.22958        59.50795        -0.54775
C         42.60768        61.41537        -1.28848
C         41.35328        60.85495        -1.01062
C         42.64379        62.88453        -1.50343
C         41.35863        63.63601        -1.64962
C         42.57873        65.70282        -2.26878
C         41.33490        64.97411        -1.93131
C         42.56122        67.14614        -1.96704
C         41.36986        67.81138        -1.81426
C         42.47525        69.70030        -0.69552
C         41.31289        69.13614        -1.19234
C         42.41181        70.77200         0.35908
C         41.20337        71.65346         0.13926
C         42.37207        73.47959         1.47768
C         41.18531        72.95085         0.71054
C         45.36480        33.49669         1.34787
C         44.17118        34.22583         1.41105
C         45.45003        36.31850         1.42477
C         44.19171        35.63806         1.46157
C         45.49859        37.74639         1.43959
C         44.28164        38.50770         1.63982
C         45.50747        40.67344         1.58794
C         44.32026        39.87346         1.88119
C         45.62657        42.09697         2.00929
C         44.48394        42.80505         2.51007
C         45.76218        44.92924         2.07037
C         44.58177        44.25794         2.58788
C         45.74531        46.26201         1.68321
C         44.60461        47.15416         2.05812
C         45.35322        48.47502         0.01772
C         44.42059        48.31677         1.15950
C         45.10247        49.61249        -0.89300
C         43.74792        50.18462        -0.78193
C         44.81412        52.54465        -1.96228
C         43.53904        52.08858        -1.74789
C         45.04764        54.04486        -2.15288
C         43.80112        54.89257        -1.79874
C         45.22103        56.97201        -1.69842
C         43.98562        56.31687        -1.44905
C         45.23341        58.42715        -1.72345
C         44.07017        59.17799        -1.31386
C         45.08753        61.34877        -2.18657
C         43.84484        60.62059        -1.63179
C         45.17849        62.81195        -2.12215
C         43.92988        63.56753        -1.87522
C         45.20222        65.76130        -2.36750
C         43.88158        64.97958        -2.37734
C         45.10334        67.00230        -1.50030
C         43.80388        67.72470        -1.41339
C         45.02503        69.70056        -0.49157
C         43.80259        69.21767        -1.22530
C         44.94441        70.90343         0.25208
C         43.71503        71.52440         0.55891
C         44.85418        73.55019         1.36114
C         43.69369        72.83534         1.12078
C         46.59495        34.14250         1.33869
C         47.90617        36.24184         1.39208
C         46.66611        35.56486         1.37688
C         47.96528        37.65331         1.41171
C         46.73868        38.40037         1.39608
C         48.07507        40.53895         1.44728
C         46.79514        39.85914         1.30064
C         48.09733        41.95712         1.54125
C         46.88931        42.70876         1.83627
C         48.18769        44.80168         1.44552
C         47.05066        44.17017         2.18866
C         48.08295        46.04854         0.83386
C         46.86073        46.80216         0.93354
C         47.77175        48.53230        -0.62542
C         46.73706        47.98561         0.16646
C         47.56892        49.70874        -1.54460
C         46.19544        50.37264        -1.55644
C         47.81088        52.71168        -2.60369
C         45.88836        51.55819        -2.20302
C         47.67431        54.14008        -2.40488
C         46.38304        54.77803        -2.17786
C         47.66857        56.91309        -1.76607
C         46.39075        56.18327        -1.98171
C         47.66359        58.43701        -1.71053
C         46.41361        59.14013        -1.97901
C         47.66392        61.37018        -2.30861
C         46.38073        60.58135        -2.30576
C         47.66011        62.83032        -2.07377
C         46.39876        63.51647        -2.08967
C         47.60685        65.63413        -1.71615
C         46.41851        64.94533        -1.97987
C         47.58397        67.06426        -1.43820
C         46.36115        67.74862        -1.28039
C         47.49285        69.75966        -0.42376
C         46.27183        69.06196        -0.71768
C         47.48383        70.96787         0.27178
C         46.19771        71.45472         0.79493
C         47.41618        73.62460         1.45093
C         46.15261        72.89500         1.38584
C         49.20202        38.34383         1.40228
C         50.51783        40.43057         1.33405
C         49.27626        39.76306         1.42183
C         50.55813        41.83970         1.24682
C         49.35542        42.59341         1.41781
C         50.55678        44.63965         0.64835
C         49.49451        44.08790         1.54850
C         50.44017        45.92255         0.09130
C         49.19472        46.64942         0.13440
C         50.25722        48.58255        -0.97618
C         49.07109        47.91201        -0.51953
C         50.21077        49.92295        -1.46966
C         48.89840        50.48833        -1.92541
C         50.19708        52.62987        -2.44515
C         48.91969        51.95436        -2.24033
C         50.15384        54.19765        -2.63215
C         48.89164        54.87682        -2.35394
C         50.17839        56.97755        -2.02454
C         48.96475        56.26644        -2.04103
C         50.28687        58.46217        -1.64747
C         48.95006        59.20937        -1.67362
C         50.17278        61.43186        -2.14777
C         48.92621        60.67448        -1.92481
C         50.14230        62.79863        -1.96590
C         48.86724        63.51090        -1.86908
C         50.09491        65.64888        -1.57700
C         48.86975        64.93801        -1.69006
C         50.06461        67.08307        -1.33967
C         48.82176        67.74619        -1.23979
C         50.04013        69.89580        -0.51223
C         48.75267        69.18684        -0.92846
C         49.94199        71.09318         0.33910
C         48.69559        71.66250         0.62354
C         49.85854        73.63042         1.58844
C         48.63401        72.98000         1.25017
C         51.76750        42.51372         0.91771
C         52.89102        44.47898        -0.06935
C         51.75789        43.87436         0.50997
C         52.84226        45.82503        -0.49975
C         51.59465        46.53508        -0.47996
C         52.74126        48.57830        -1.13294
C         51.53483        47.90306        -0.87312
C         52.72605        50.07444        -1.11829
C         51.41545        50.65676        -1.58935
C         52.66476        52.70046        -2.22917
C         51.46173        51.99875        -2.04943
C         52.63646        54.10962        -2.67183
C         51.40841        54.91659        -2.44944
C         52.74656        57.02017        -2.04474
C         51.41940        56.27634        -2.20605
C         52.65027        58.44849        -2.60948
C         51.36556        59.18989        -2.48381
C         52.66795        61.44514        -2.27522
C         51.38741        60.73567        -2.69286
C         52.65050        62.81006        -1.97623
C         51.38232        63.54211        -1.87435
C         52.62223        65.66400        -1.61806
C         51.34111        64.92043        -1.66195
C         52.58504        67.14768        -1.32783
C         51.28482        67.81190        -1.05474
C         52.47637        69.74506        -0.01558
C         51.28233        69.10954        -0.54691
C         52.38150        71.04818         0.61084
C         51.15883        71.69206         0.80750
C         52.29263        73.62791         1.90067
C         51.10145        73.00539         1.43794
C         54.01533        46.49588        -0.90805
C         55.19928        48.58603        -1.41353
C         53.99087        47.88109        -1.15865
C         55.20096        49.97016        -1.69787
C         53.96117        50.69935        -1.72109
C         55.18518        52.75016        -2.33809
C         53.94047        52.04322        -2.10794
C         55.21148        54.13356        -2.57618
C         53.93619        54.83160        -2.83822
C         55.20683        57.05717        -2.74258
C         53.90236        56.32726        -2.80059
C         55.19560        58.49416        -2.42394
C         53.94131        59.21885        -2.71505
C         55.19833        61.34872        -2.03436
C         53.94500        60.72805        -2.49799
C         55.20362        62.86334        -2.12540
C         53.88728        63.52477        -1.74821
C         55.08745        65.55306        -1.03078
C         53.88805        64.89156        -1.45404
C         55.07603        66.97429        -0.63254
C         53.83053        67.81571        -0.81900
C         54.79169        69.49606         0.82421
C         53.69015        69.06920        -0.06351
C         54.89635        70.94322         1.13161
C         53.62274        71.74979         0.99960
C         54.73880        73.55642         2.27281
C         53.55035        73.01846         1.75416
C         56.41151        50.64634        -1.96490
C         57.65281        52.73992        -2.31271
C         56.43398        52.03628        -2.21390
C         57.67791        54.14839        -2.41356
C         56.43410        54.86631        -2.55730
C         57.63239        56.99577        -2.26967
C         56.45450        56.29146        -2.57700
C         57.60088        58.40298        -1.96209
C         56.35626        59.14887        -2.06366
C         57.56708        61.18515        -1.32652
C         56.35289        60.59381        -1.84491
C         57.60305        62.65024        -1.09707
C         56.43358        63.49895        -1.48401
C         57.47882        65.50604        -0.42825
C         56.31721        64.86631        -0.91463
C         57.39707        66.80912         0.14725
C         56.17605        67.45167         0.23125
C         57.15578        69.15643         1.94282
C         55.99577        68.64101         1.07793
C         57.15383        70.66660         2.20253
C         56.02323        71.44993         1.93466
C         57.14196        73.40750         2.84501
C         55.96626        72.82651         2.33517
C         58.88860        54.87270        -2.33485
C         60.07866        56.99633        -1.98030
C         58.88590        56.27730        -2.20237
C         60.05142        58.36003        -1.59795
C         58.76791        59.04472        -1.51821
C         59.87918        60.97864        -0.38468
C         58.70549        60.42119        -1.09718
C         59.89210        62.41780         0.04808
C         58.63986        63.22731        -0.17424
C         59.98283        65.42675         0.16229
C         58.68290        64.71707        -0.04425
C         59.92623        66.77605         0.51374
C         58.65332        67.59048         0.42988
C         59.59681        69.15771         2.15558
C         58.50557        68.65074         1.49737
C         59.49104        70.39332         2.94079
C         58.30724        71.23606         2.82428
C         59.51909        73.45284         3.29058
C         58.32806        72.67180         3.05379
C         61.24578        59.04709        -1.34394
C         62.45217        61.11011        -0.45697
C         61.22969        60.29298        -0.58558
C         62.46951        62.41110        -0.08085
C         61.20516        63.14382         0.23971
C         62.45625        65.19528        -0.11158
C         61.20969        64.62933         0.09756
C         62.39389        67.14828         0.70565
C         61.05230        67.50528         1.06696
C         62.03485        68.86586         2.88849
C         60.88286        68.50111         2.02729
C         61.96800        70.20871         3.57368
C         60.61100        70.79989         3.64066
C         62.01845        73.32717         3.75788
C         60.67867        72.93267         3.86963
C         63.83053        63.08869         0.06246
C         64.80203        65.34049         0.65256
C         63.73370        64.59576         0.19190
C         64.76939        66.67988         1.22570
C         63.50904        67.37092         1.45492
C         64.56984        69.07596         2.89774
C         63.38316        68.15329         2.73445
C         64.46684        70.38970         3.44089
C         63.19915        71.02643         3.72434
C         64.39414        73.14373         4.06044
C         63.16720        72.45833         3.89553
C         65.88709        67.23496         1.82973
C         67.00807        69.21099         2.80368
C         65.82599        68.51374         2.52093
C         66.95489        70.51768         3.34879
C         65.68687        71.12515         3.60501
C         66.85672        73.20735         4.21952
C         65.64621        72.49798         3.99865
C         68.14369        71.25757         3.59187
C         68.08650        72.57745         4.03612
O         54.64510        71.75391        -0.06143
O         39.26758        47.98756         4.10239
O         60.41924        60.11834         0.64919
O         37.52809        55.11544         1.83325
O         48.20911        49.58716        -2.84256
O         49.45809        70.07316        -1.85289
O         42.27224        54.98981         0.96371
O         44.13620        54.57223        -3.17166
O         28.68509        63.54483         1.82456
O         52.71006        66.66943        -2.69867
O         44.28393        66.91356        -0.28509
O         39.34254        63.66824        -0.21655
O         34.06053        64.95719        -3.20393
O         41.39540        46.68312         4.34725
O         32.18283        57.08065         2.13626
O         46.75592        52.02611        -3.18028
O         36.97410        67.72741        -3.80038
O         60.46361        71.75414         4.63048
O         43.12109        65.23621        -3.59066
O         42.25942        59.03382         0.25584
O         47.08175        60.92045        -3.56812
O         32.58202        67.64684        -3.09937
O         47.61696        57.61604        -0.47466
O         33.69651        73.36078        -1.63238
O         43.28021        50.72806        -1.96961
O         40.90095        56.70242        -2.02609
O         38.14097        56.45384        -1.72959
O         38.48630        72.18761        -2.11023
O         50.21355        53.27516        -3.75458
O         42.90573        49.35529         2.64675
O         24.26486        72.12667        -0.08706
O         45.97818        40.44209         0.22214
O         35.59951        70.19975        -3.08861
O         43.21724        41.01625         3.77199
O         41.70848        53.57675        -2.26029
O         60.45471        62.61201         1.37319
O         43.52119        63.50987        -0.45415
O         44.06322        60.83500        -3.09119
O         53.23056        54.30506        -4.01389
O         57.60391        63.39271        -2.38699
O         28.57811        68.72024        -1.96823
O         61.78753        68.93698         4.34614
O         37.07835        52.38255        -0.47380
O         58.19668        63.82725         1.07113
O         34.76950        61.75959        -2.60049
O         44.89280        48.19513        -1.35908
O         51.72690        58.51671        -3.72813
O         48.86568        60.15537        -0.53965
O         42.67726        44.53082         3.97356
O         54.90713        67.89548        -1.80966
O         44.50169        47.37325         3.49980
O         46.17510        71.67812         2.22643
O         54.02200        60.11497        -3.85708
O         38.25722        65.01854        -3.56479
O         62.52266        66.52718        -0.55158
O         54.79843        68.55897         1.97085
O         54.42576        56.88236        -4.01895
O         30.95664        59.16538         1.93125
O         53.13747        57.03873        -0.70964
O         40.66244        49.74114        -0.13514
O         58.82896        68.38945        -0.80974
H         58.81398        67.77235        -1.57281
O         50.77983        58.50826        -0.29715
H         50.04887        58.26520         0.30953
O         47.39336        44.23340         3.64623
H         46.64381        43.83464         4.13978
O         43.91744        69.75875        -2.58415
H         43.74526        70.72296        -2.55062
O         52.80603        50.43813         0.32817
H         53.63941        50.05308         0.67597
O         56.98998        68.54355         3.25850
H         56.02227        68.50715         3.43932
O         51.31412        60.96181        -4.12962
H         52.05938        60.45072        -4.53128
O         39.32682        68.45868        -3.72452
H         38.50269        68.68501        -4.21755
O         64.67859        62.73713        -1.04096
H         64.36536        63.21029        -1.83868
O         45.46746        66.23068        -3.70924
H         44.64674        66.08401        -4.23939
O         63.48497        67.16462         3.80198
H         63.05986        67.56573         4.59601
O         34.64567        67.20444        -4.10836
H         35.44828        66.88073        -4.57269
O         36.71709        48.46940         4.40768
H         37.60877        48.21012         4.74686
O         27.72231        70.72542         2.13129
H         28.53280        70.21395         2.33419
O         26.73519        72.68177        -0.78096
H         25.83047        72.96373        -1.04758
O         42.18731        70.07477         1.64353
H         41.47991        69.41058         1.50229
O         42.44504        74.90460         1.36527
H         42.48369        75.13811         0.41535
O         55.29496        63.12629        -3.55673
H         56.25148        63.09379        -3.79031
O         25.90653        67.90955        -2.02405
H         26.64021        68.35774        -2.50452
O         49.99835        44.31078         2.92338
H         49.20999        44.25772         3.52142
H         23.39911        74.70027         3.46027
H         25.74390        74.79860         2.75017
H         28.13961        74.78189         2.29662
H         30.51045        74.91263         1.56899
H         32.88314        74.91841         1.19568
H         35.33675        74.93057         0.79925
H         37.62107        74.89157         0.72803
H         40.01700        74.69033         1.21536
H         42.19215        73.26070         2.56781
H         44.78341        74.62174         1.60278
H         47.40387        74.68267         1.75321
H         49.81380        74.63132         2.04314
H         52.21887        74.59754         2.41556
H         54.70985        74.55573         2.73296
H         57.14489        74.48383         3.07027
H         59.52641        74.48442         2.90847
H         62.23134        74.36582         3.46223
H         64.36884        74.22935         4.23796
H         66.81295        74.26089         4.53028
H         22.08034        69.21734         1.52052
H         21.08929        71.10990         2.78871
H         21.31208        73.39367         3.73200
H         24.40597        65.20615         0.75534
H         23.17405        67.24190         0.86104
H         27.02186        60.94427         0.48560
H         25.65007        63.07163         0.66502
H         29.31006        56.61325         0.35053
H         28.15217        58.98072         0.09240
H         31.99538        52.56390         1.51391
H         30.77332        54.42115         0.63039
H         34.56582        48.59193         2.81789
H         33.28789        50.49795         1.99173
H         37.39633        44.52700         1.57805
H         36.12152        46.59217         1.81852
H         39.74881        40.23680         1.46242
H         38.62090        42.39722         1.48419
H         42.02452        35.87201         1.55023
H         40.85357        38.04622         1.54189
H         45.32626        32.39886         1.31376
H         43.20598        33.70007         1.43023
H         47.52676        33.56045         1.30208
H         48.84107        35.66242         1.38056
H         50.13672        37.76525         1.36789
H         51.44605        39.84897         1.24402
H         52.69269        41.92863         0.81022
H         53.83474        43.91917        -0.14215
H         54.97157        45.95386        -0.93486
H         56.14999        48.03422        -1.41438
H         57.35896        50.08917        -1.92163
H         58.60063        52.18948        -2.21919
H         59.84151        54.32711        -2.27083
H         61.04128        56.46464        -1.99735
H         62.21042        58.57694        -1.58659
H         63.40889        60.62666        -0.71170
H         64.32508        62.67279         0.98001
H         65.75115        64.79831         0.80264
H         66.86890        66.74786         1.72994
H         67.98249        68.76882         2.54955
H         69.11661        70.77752         3.41367
H         69.01712        73.13312         4.21708
