         244
 CSIRO Nanostructure Databank - Neutral Graphene Oxide Data Set
C          1.20274         2.02110        -0.04949
C          1.19745         3.41003         0.14939
C          2.40128         1.35313        -0.23693
C          2.39916         4.12145         0.19886
C          1.26901         6.38143         0.84997
C          1.28579         7.72419         0.94397
C          2.35778         5.61627         0.18653
C          2.39422         8.55614         0.32002
C          1.25909        10.78595         0.74903
C          1.22801        12.09234         0.46894
C          2.53523         9.99249         0.87652
C          2.43055        12.87171         0.00729
C          1.51565        14.92182         1.24770
C          1.62160        16.26264         1.62385
C          2.56541        14.26487         0.59129
C          2.76058        17.01059         1.26733
C          2.89342        18.42016         1.57941
C          3.65389         2.01489        -0.12808
C          3.64755         3.43347         0.13662
C          4.82225         1.23866        -0.48147
C          4.87563         4.21843         0.16882
C          3.62396         6.37118        -0.06074
C          3.72094         7.78049         0.49779
C          4.89533         5.62144        -0.05578
C          4.90978         8.52764        -0.06864
C          3.72824        10.69735         0.23964
C          3.72746        12.08779         0.08193
C          4.87915         9.93086        -0.14277
C          4.93062        12.80963        -0.20326
C          3.76205        14.96914         0.30821
C          3.81020        16.35696         0.58004
C          4.95038        14.24537        -0.15150
C          4.95168        17.15483         0.12314
C          4.01198        19.14363         1.26489
C          5.12834        18.55365         0.57413
C          6.11030         1.54534        -0.03524
C          6.11936         3.62512         0.44393
C          7.38985         1.21610        -0.52264
C          7.36474         4.21508         0.12997
C          6.10601         6.33446        -0.09991
C          6.10473         7.77741        -0.27305
C          7.35330         5.63127        -0.07690
C          7.33565         8.43105        -0.50415
C          6.03261        10.64490        -0.70953
C          6.13501        12.10763        -0.52955
C          7.35181         9.84640        -0.87365
C          7.34377        12.77397        -0.74664
C          6.16027        14.91726        -0.36143
C          6.16991        16.39211        -0.34081
C          7.38895        14.20865        -0.64464
C          7.45817        17.11435        -0.21373
C          6.29425        19.24795         0.27540
C          7.47365        18.59960        -0.22358
C          8.56781         1.99884        -0.26110
C          8.56702         3.44244        -0.00188
C          9.80535         1.35557        -0.45133
C          9.79463         4.16461        -0.09883
C          8.57999         6.32716        -0.17857
C          8.57318         7.74853        -0.37217
C          9.80567         5.60316        -0.11748
C          9.79775         8.46792        -0.40054
C          8.60832        10.58204        -0.83484
C          8.57935        12.03227        -1.25305
C          9.80171         9.90159        -0.57502
C          9.87149        12.72911        -0.91322
C          8.59225        14.90605        -0.85208
C          8.67802        16.35029        -0.56293
C          9.92772        14.22191        -0.73656
C          9.75489        17.11500        -1.27988
C          8.68128        19.25105        -0.45897
C          9.87922        18.57124        -0.86512
C         11.05961         2.02231        -0.33259
C         11.04254         3.48031        -0.23599
C         12.26486         1.33552        -0.29688
C         12.24099         4.19843        -0.31863
C         11.03386         6.32210        -0.13633
C         11.02388         7.77055        -0.20610
C         12.26168         5.60891        -0.20667
C         12.23111         8.49437        -0.11007
C         11.05862        10.60519        -0.53641
C         11.04652        12.05723        -0.66990
C         12.24398         9.89810        -0.28164
C         12.28160        12.82638        -0.49522
C         11.11941        14.83305        -1.51873
C         11.05886        16.36512        -1.39008
C         12.39572        14.14321        -0.91244
C         12.11732        17.13938        -1.74467
C         11.09422        19.23297        -1.00618
C         12.29557        18.53512        -1.38238
C         13.54154         2.08294        -0.00739
C         13.50206         3.45438        -0.67551
C         14.81646         1.36470        -0.35941
C         14.78449         4.23010        -0.45779
C         13.51949         6.31854        -0.15991
C         13.44879         7.73068         0.36046
C         14.74144         5.67215        -0.30746
C         14.72725         8.47820         0.18294
C         13.54875        10.66667        -0.29372
C         13.38728        12.10512         0.25082
C         14.65969         9.92967         0.42560
C         14.73260        12.80891         0.25118
C         13.65857        14.81437        -0.71135
C         13.94482        16.07033        -1.27217
C         14.77390        14.19444        -0.01159
C         14.89005        16.96913        -0.77892
C         13.58073        19.08109        -1.23679
C         14.81389        18.37565        -0.99237
C         15.99659         2.08262        -0.49974
C         15.97365         3.54801        -0.48678
C         17.26349         1.43340        -0.54119
C         17.26364         4.29709        -0.71526
C         16.00863         6.40176        -0.21019
C         15.95445         7.84733         0.01018
C         17.21282         5.73340        -0.24420
C         17.14588         8.62598         0.00057
C         15.89280        10.66881         0.80048
C         15.92890        12.14209         0.58643
C         17.17855         9.84992         0.90363
C         17.13876        12.85507         0.73097
C         15.96961        14.92623         0.19526
C         15.90733        16.43146         0.19025
C         17.17085        14.26582         0.54376
C         17.23900        17.10456         0.01603
C         16.01577        19.12125        -0.74196
C         17.21495        18.51084        -0.36820
C         18.47540         2.14051        -0.35529
C         18.50266         3.55977        -0.28778
C         19.69357         1.40916        -0.15503
C         19.69309         4.25725         0.03697
C         18.51824         6.44816        -0.27634
C         18.42310         7.99569        -0.32840
C         19.74214         5.69935         0.15737
C         19.61539         8.85124        -0.23864
C         18.43598        10.67748         0.78351
C         18.39089        12.13112         1.06669
C         19.64713        10.06312         0.52382
C         19.69344        12.90027         1.02645
C         18.41962        15.01680         0.60416
C         18.40369        16.44375         0.33547
C         19.65342        14.36360         0.75846
C         19.66205        17.24593         0.57560
C         18.46577        19.20648        -0.44409
C         19.66483        18.58241        -0.13478
C         20.85382         2.06342         0.15455
C         20.88060         3.48677         0.28858
C         22.07295         4.13464         0.66530
C         20.92173         6.29103         0.66730
C         21.05500         7.67355         1.26906
C         22.07966         5.50128         0.88088
C         22.21080         8.52605         0.82416
C         20.94385        10.69556         1.03189
C         20.96360        12.16541         0.57454
C         22.15385         9.86217         0.65109
C         22.17678        12.95844         0.97332
C         20.90672        15.05587         0.68003
C         20.94230        16.45656         0.42908
C         22.12922        14.31159         0.92996
C         22.12108        17.15659         0.15720
C         20.91797        19.22155        -0.35310
C         22.10619        18.52811        -0.18176
O          8.37238        16.62853         0.85019
O         18.58771         7.18887        -1.56488
O          2.71235         6.14193        -1.17542
O         20.31156         8.00365         2.19297
O         13.19350        16.49407        -2.37750
O          6.13588         2.39735         1.09734
O         14.90462        10.30049         1.85001
O         19.09244        12.53758         2.29729
O          5.26740        16.99390        -1.31363
O          6.47717        10.17770        -2.02638
O         20.53514         8.62643        -1.16080
H         20.18059         7.87277        -1.71990
O         17.28598         9.36210         2.27906
H         16.39520         9.48672         2.68803
O         20.89305        10.68687         2.46646
H         20.61602         9.78098         2.75212
O         17.38862         4.39942        -2.18543
H         16.58238         4.84840        -2.51808
O         11.03959        14.47500        -2.90421
H         11.75658        14.95298        -3.37297
O          2.21228        13.09524        -1.42522
H          2.20191        12.21650        -1.86129
O         12.91356        12.03896         1.61768
H         13.56027        11.48871         2.12477
O         20.91527        12.11656        -0.88252
H         21.09780        13.01936        -1.21967
O         13.23462         7.57256         1.81843
H         14.03539         7.14025         2.18466
O         13.99214        10.76232        -1.67554
H         13.25376        11.13250        -2.20487
O         13.57575         2.31934         1.44171
H         13.58280         1.44661         1.88728
O          9.23188        17.15701        -2.65840
H          9.89871        17.60054        -3.22420
O         19.61127        17.58835         2.01437
H         18.83766        18.17878         2.14081
O          2.12083         8.73718        -1.08191
H          2.13023         7.83699        -1.49571
O         10.29953        14.47549         0.66033
H          9.50646        14.36650         1.22634
O         13.42620         3.20596        -2.11345
H         13.29126         4.06670        -2.56168
O          8.45822        12.03286        -2.71813
H          7.67156        11.47151        -2.92483
O          2.80640         9.90476         2.31169
H          2.90885        10.81751         2.65447
O         15.43237        16.82110         1.53449
H         16.01591        16.37934         2.18784
O          3.97766         7.56021         1.90905
H          3.79667         8.40674         2.38507
H          0.25146         1.47408        -0.10591
H          0.23990         3.94513         0.21691
H          2.39435         0.27467        -0.45172
H          0.44651         5.81343         1.31184
H          0.45762         8.23433         1.45975
H          0.32009        10.26445         0.99165
H          0.25450        12.60324         0.40742
H          0.58933        14.37777         1.47978
H          0.79341        16.75036         2.15757
H          2.06220        18.90877         2.10907
H          4.67424         0.38803        -1.16417
H          4.07580        20.20387         1.55184
H          7.50959         0.32263        -1.15465
H          6.34779        20.32350         0.50631
H          9.80885         0.27116        -0.64078
H          8.73053        20.34343        -0.32459
H         12.26923         0.23422        -0.32556
H         11.16726        20.29227        -0.71356
H         14.85261         0.26502        -0.30135
H         13.62970        20.16863        -1.05474
H         17.29344         0.33350        -0.55193
H         16.01754        20.20031        -0.96091
H         19.67527         0.31288        -0.23879
H         18.47734        20.23069        -0.84840
H         21.78496         1.50319         0.32351
H         22.98220         3.54253         0.84072
H         22.98677         5.98389         1.27052
H         23.12489         7.99467         0.51521
H         23.04600        10.38335         0.26767
H         23.11323        12.43737         1.21878
H         23.04366        14.88216         1.14807
H         23.08533        16.62887         0.14245
H         20.93153        20.25640        -0.72589
H         23.06142        19.03297        -0.38487
