         344
 CSIRO Nanostructure Databank - Neutral Graphene Oxide Data Set
C          1.14938         3.31550        -0.68068
C         -0.08526         4.15773        -0.59185
C          1.19846         6.12033         0.15033
C         -0.07307         5.42919        -0.17130
C          1.23183         7.61327         0.42959
C         -0.01518         8.41073         0.50817
C          1.14842        10.52253        -0.15143
C         -0.06114         9.73541         0.30124
C          1.18511        11.97912         0.29454
C          0.05494        12.68013         0.63586
C          1.28713        14.79251         0.80349
C          0.12964        14.06448         0.96953
C          1.43482        16.15433         1.44754
C          0.17543        16.94216         1.65845
C          1.44483        19.02579         1.68009
C          0.22537        18.29371         1.82915
C          1.44393        20.50875         1.92920
C          0.33727        21.05742         1.05999
C          1.46513        23.19539         0.72599
C          0.43187        22.30800         0.44871
C          1.45554        24.60505         0.17802
C          0.16363        25.35700         0.41397
C          1.35497        27.50184         0.34170
C          0.13935        26.71013         0.41001
C          1.30888        28.92451         0.21833
C          3.65206         3.45543        -0.88642
C          2.43521         4.11307        -0.65669
C          3.66514         6.21268        -0.35515
C          2.45032         5.48069        -0.32123
C          3.67019         7.65666        -0.15036
C          2.48746         8.32834         0.13811
C          3.69929        10.59021         0.14432
C          2.43131         9.80577         0.24288
C          3.60614        12.02892        -0.16922
C          2.43001        12.70607         0.11650
C          3.65381        14.87303         0.04537
C          2.46388        14.15214         0.26999
C          3.61699        16.38022         0.04160
C          2.55138        16.99650         0.90152
C          3.94606        19.03635         1.31740
C          2.60010        18.35022         1.19593
C          3.87981        20.54150         1.19395
C          2.73878        21.20341         1.54324
C          3.91615        23.38937         1.11957
C          2.64350        22.71267         1.54141
C          3.85080        24.79706         0.93163
C          2.64949        25.43085         0.60709
C          3.82306        27.63394         0.52100
C          2.59763        26.85209         0.47927
C          3.75419        29.07996         0.32511
C          2.45659        29.68163         0.19357
C          6.13909         3.34355        -1.01564
C          4.86936         4.13920        -0.83735
C          6.13269         6.27617        -0.75529
C          4.88426         5.53804        -0.63509
C          6.09377         7.72161        -0.66780
C          4.91234         8.37526        -0.33916
C          5.98219        10.56090        -0.92013
C          5.02217         9.84731         0.04132
C          6.08607        12.06827        -0.61353
C          4.73285        12.77461        -0.83406
C          6.02789        14.93262        -0.68628
C          4.83490        14.23411        -0.43497
C          6.09865        16.36574        -0.40073
C          4.97132        17.04182         0.14830
C          6.25772        19.11371         0.32048
C          5.05750        18.38765         0.52508
C          6.29430        20.55171         0.54704
C          5.12622        21.24689         0.91382
C          6.36155        23.39144         0.80363
C          5.12514        22.68330         0.97968
C          6.40142        24.85683         1.01034
C          5.07958        25.59280         1.06518
C          6.32638        27.80168         0.84330
C          5.03691        27.02064         0.73091
C          6.22145        29.18979         0.25200
C          4.92343        29.81919         0.23233
C          8.59749         3.49824        -0.64130
C          7.39641         4.15706        -0.83914
C          8.62790         6.31069        -1.19151
C          7.33868         5.58797        -0.89129
C          8.59668         7.78694        -0.88725
C          7.34094         8.48388        -0.81648
C          8.53365        10.63880        -1.03693
C          7.32670         9.87174        -0.86597
C          8.50006        12.01282        -1.25368
C          7.19304        12.75286        -1.42272
C          8.42555        14.92690        -1.29572
C          7.25111        14.24187        -1.09738
C          8.41069        16.43822        -1.39691
C          7.29582        17.08414        -0.60341
C          8.61018        19.19201        -0.47949
C          7.38088        18.44884        -0.23924
C          8.67513        20.60283        -0.17167
C          7.51743        21.27557         0.30479
C          8.80332        23.44963         0.48969
C          7.52801        22.69825         0.51068
C          8.77637        24.91380         0.29176
C          7.58572        25.61929         0.54008
C          8.64211        27.67784        -0.20255
C          7.52158        27.01369         0.33434
C          8.57931        29.12707        -0.64620
C          7.32084        29.83796        -0.22744
C         11.00823         3.51735        -0.10509
C          9.82881         4.19543        -0.42348
C         10.99968         6.35394        -0.41283
C          9.84688         5.63796        -0.60140
C         11.05817         7.78261        -0.69849
C          9.79052         8.48842        -0.85553
C         11.01036        10.60246        -1.06972
C          9.80718         9.93158        -0.97090
C         11.05125        12.01810        -1.45457
C          9.71963        12.73093        -1.62628
C         11.01209        14.95922        -1.57426
C          9.68505        14.23047        -1.67572
C         10.94146        16.41734        -1.29862
C          9.75126        17.09830        -1.17644
C         10.88289        19.32826        -1.49443
C          9.73336        18.52944        -0.96217
C         11.03047        20.71205        -0.93484
C          9.92102        21.31090        -0.35815
C         11.20475        23.50040        -0.39146
C         10.04764        22.71382         0.07646
C         11.17459        24.88671        -0.38965
C          9.93608        25.60323        -0.13717
C         11.02498        27.72403        -0.99809
C          9.84343        26.98519        -0.41484
C         11.06345        29.16696        -0.50951
C          9.88067        29.81680        -0.29523
C         13.43324         3.55434         0.34384
C         12.22942         4.20709         0.11828
C         13.49427         6.36701        -0.07137
C         12.18648         5.71250         0.25468
C         13.56593         7.71685        -0.72688
C         12.25529         8.45019        -0.75360
C         13.48499        10.66630        -0.64813
C         12.31916         9.87918        -1.21320
C         13.44435        12.08330        -0.68357
C         12.27499        12.79721        -1.14901
C         13.41502        14.90691        -0.74998
C         12.25610        14.19499        -1.21022
C         13.45320        16.39241        -0.78996
C         12.21459        17.16082        -1.13127
C         13.29101        19.32976        -1.83536
C         12.18698        18.59444        -1.50492
C         13.48105        20.71966        -1.48149
C         12.29792        21.40334        -1.06521
C         13.62209        23.46983        -0.95121
C         12.38092        22.78973        -0.79771
C         13.63741        24.89606        -0.84058
C         12.38571        25.62960        -0.68634
C         13.57273        27.77746        -1.16851
C         12.33177        27.00401        -0.80727
C         13.54852        29.19768        -0.62471
C         12.34002        29.81565        -0.35424
C         15.86714         3.62648         0.75164
C         14.65842         4.27647         0.49794
C         15.90586         6.44692         0.30776
C         14.66656         5.70879         0.23484
C         15.88640         7.88437         0.19614
C         14.71327         8.55375        -0.19740
C         15.82408        10.73387         0.16653
C         14.65832         9.98033        -0.22991
C         15.76778        12.14845         0.20129
C         14.58290        12.82537        -0.21563
C         15.58769        15.01395         0.56374
C         14.52403        14.25165        -0.21745
C         15.78191        16.44499         0.09518
C         14.82086        16.99057        -0.76577
C         16.09594        19.09716        -0.86714
C         15.12141        18.22757        -1.34290
C         16.06957        20.53180        -1.31437
C         14.77531        21.32010        -1.35368
C         16.10112        23.44536        -1.01833
C         14.83328        22.72440        -1.11784
C         16.09144        24.89947        -0.93588
C         14.86189        25.58740        -0.90300
C         16.09965        27.80523        -1.03914
C         14.82430        27.07062        -0.62248
C         16.03618        29.23386        -0.54029
C         14.79132        29.86257        -0.41366
C         18.30747         3.68173         1.14097
C         17.08494         4.34469         0.84517
C         18.29948         6.51024         0.87659
C         17.08951         5.77164         0.66375
C         18.28823         7.93364         0.82050
C         17.07515         8.63234         0.50724
C         18.23684        10.79311         0.80448
C         17.04200        10.04708         0.48904
C         18.20766        12.20966         0.81916
C         16.96441        12.91306         0.54453
C         18.18665        15.11358         0.68104
C         16.91928        14.29168         0.59746
C         17.93009        16.49414         1.32326
C         16.91782        17.20511         0.44495
C         18.25756        19.34116         0.30178
C         17.06827        18.55275         0.01094
C         18.43076        20.60406        -0.24327
C         17.33556        21.28320        -0.99989
C         18.63015        23.46149        -0.99190
C         17.30093        22.75765        -0.92402
C         18.56348        24.92598        -0.61113
C         17.32963        25.62466        -0.74478
C         18.50907        27.74865        -0.31917
C         17.33256        27.04205        -0.61766
C         18.47117        29.18809        -0.15820
C         17.24245        29.88501        -0.22831
C         19.48132         4.39085         1.29385
C         20.68993         6.55583         1.41694
C         19.49834         5.81023         1.19165
C         20.67837         7.93045         1.37938
C         19.48306         8.66119         1.10190
C         20.59705        10.85399         1.47628
C         19.44659        10.09302         1.11701
C         20.55755        12.22159         1.54414
C         19.37361        12.95280         1.21137
C         20.43662        15.13733         1.78437
C         19.34712        14.36800         1.28307
C         20.39950        16.50070         1.91596
C         19.20476        17.28836         1.58291
C         20.64714        19.38425         1.06347
C         19.32779        18.73469         1.12844
C         20.78126        20.62394         0.54324
C         19.65591        21.35177        -0.01634
C         20.94043        23.47038        -0.04965
C         19.75334        22.71252        -0.30856
C         20.95535        24.83864        -0.10503
C         19.75090        25.60701        -0.30432
C         20.90437        27.77863         0.17898
C         19.74649        27.04279        -0.13146
C         20.86114        29.17324         0.31606
C         19.67134        29.87117         0.15825
O         10.36564        14.71115        -2.88708
O          1.32360         6.62284         1.52375
O          5.85565        25.29448         2.30669
O         18.92845        18.38750         2.52294
O         17.05281        20.79064        -2.37219
O         14.36111        18.65442        -2.42652
O          9.75011        22.96120         1.50369
O         12.65950        17.01380         0.30473
O         10.44197        12.18991        -2.79525
O          3.05086        10.31510         1.46757
O         13.56565        27.84967        -2.62223
H         14.49222        28.03552        -2.92115
O         12.55699         9.81413        -2.68124
H         12.22810        10.65284        -3.07598
O         15.07808        15.01839         1.92857
H         15.76834        15.46439         2.48419
O          4.31552        18.79314         2.72381
H          3.67067        19.27856         3.28309
O          5.43875        10.36410        -2.23941
H          5.91856        10.96138        -2.85813
O         13.89281         7.44519        -2.14196
H         13.66000         8.26078        -2.64844
O         18.99348        23.44974        -2.42538
H         18.18415        23.65815        -2.93869
O          5.60873         9.85162         1.37500
H          4.85208         9.74571         2.00123
O          1.89696        15.80522         2.82536
H          2.09004        16.65001         3.28755
O         10.54040        19.51784        -2.93234
H         11.25844        20.05049        -3.33754
O         11.98435         5.96160         1.70456
H         11.19018         5.45220         1.97422
O          1.14029        10.52772        -1.60939
H          0.43139        11.13241        -1.91208
O          6.47628        12.27731         0.75676
H          6.20263        11.48991         1.29428
O          1.18516        20.74976         3.34455
H          1.35123        21.71320         3.49818
O          6.56356        27.98969         2.27592
H          6.46469        27.09795         2.69192
O          8.77144         6.22027        -2.65664
H          9.62600         6.64070        -2.89308
O          3.17307        16.71683        -1.33851
H          3.80999        16.29782        -1.95723
O          1.56513        24.46526        -1.28597
H          1.49480        25.36535        -1.66971
O         14.71862        27.19083         0.82152
H         15.48341        26.72684         1.22258
O          6.90290        12.65648        -2.86000
H          7.69296        12.98188        -3.34566
O         17.35428        16.26588         2.63642
H         17.48505        17.09874         3.14582
O          8.09400        16.69362        -2.81332
H          8.84975        16.33819        -3.33445
O          8.48600        29.12993        -2.10856
H          9.29515        28.67307        -2.45942
O          4.34982        12.79736        -2.23992
H          5.12149        13.11921        -2.76236
O          1.05990         2.50825        -1.85798
H          1.91692         2.05812        -2.00000
O          6.15129         2.73637        -2.32549
H          6.29761         3.44711        -2.98381
O         16.18027        27.85216        -2.50445
H         16.99457        28.34776        -2.73530
O          2.40042        23.16099         2.93599
H          3.27215        23.22677         3.38245
O         10.82521        27.76373        -2.45849
H         11.71303        27.94648        -2.85897
O         18.57125        15.42314        -0.70610
H         18.79942        14.57772        -1.14777
H          1.15578         2.62714         0.22725
H         -1.03495         3.66766        -0.85191
H         -1.01538         5.98670        -0.06954
H         -0.92718         7.87985         0.81919
H         -1.02950        10.25135         0.38491
H         -0.91998        12.18089         0.72422
H         -0.76973        14.53263         1.39144
H         -0.76645        16.41233         1.85707
H         -0.68739        18.83262         2.12087
H         -0.55607        20.44772         0.86884
H         -0.39708        22.64184        -0.19500
H         -0.77544        24.78629         0.46537
H         -0.81960        27.24561         0.48642
H          0.32746        29.41317         0.12973
H          3.66292         2.37194        -1.08097
H          2.39314        30.77306         0.07345
H          6.13592         2.49327        -0.28213
H          4.86549        30.89349        -0.00321
H          8.60297         2.39916        -0.58677
H          7.20651        30.87025        -0.59759
H         11.00130         2.41727        -0.06167
H          9.87512        30.86818         0.03265
H         13.46200         2.45374         0.35971
H         12.34118        30.86601        -0.01930
H         15.87775         2.53589         0.89886
H         14.76679        30.90049        -0.04375
H         18.30422         2.58818         1.25758
H         17.22312        30.95261         0.03909
H         20.41809         3.86424         1.52769
H         21.62288         6.01814         1.64010
H         21.61676         8.46717         1.57082
H         21.53695        10.34454         1.72461
H         21.46803        12.75954         1.83753
H         21.34798        14.62193         2.11839
H         21.26296        17.02161         2.35158
H         21.51483        18.87790         1.50725
H         21.77358        21.09411         0.54916
H         21.86652        22.95412         0.23848
H         21.89879        25.36063         0.10238
H         21.86738        27.26977         0.31663
H         21.78434        29.71767         0.55933
H         19.64861        30.96303         0.28441
