         291
 CSIRO Nanostructure Databank - Neutral Graphene Oxide Data Set
C          1.23976         1.86365         0.06142
C          1.23227         3.15616         0.41598
C          2.47884         1.08103        -0.26749
C          2.47968         3.94638         0.55373
C          1.15718         6.19515         0.60751
C          1.11452         7.53713         0.53519
C          2.44267         5.45763         0.70975
C          2.35490         8.34431         0.63042
C          1.09603        10.64572         0.69874
C          1.17257        11.90617         1.17614
C          2.35766         9.85274         0.67563
C          2.46810        12.51930         1.46432
C          1.35671        15.15949        -0.55569
C          1.27326        16.45758        -0.23510
C          2.65676        14.45009        -0.51939
C          2.46894        17.24196         0.21719
C          2.77878        18.39790        -0.70876
C          3.75615         1.88510        -0.17106
C          3.73193         3.27264         0.11207
C          4.97380         1.22640        -0.37551
C          4.93030         4.00797         0.03199
C          3.67681         6.24554         0.42364
C          3.62682         7.60781         0.35456
C          4.99391         5.46628         0.45486
C          4.81707         8.47031        -0.04904
C          3.60981        10.67091         0.26884
C          3.64092        12.01695         0.97558
C          4.86857         9.86501         0.64530
C          4.95133        12.77050         1.15619
C          3.75518        15.03885         0.30487
C          3.73346        16.41569         0.39667
C          4.94203        14.24617         0.66623
C          4.91267        17.19862         0.83782
C          3.91285        19.08256        -0.53443
C          4.93268        18.73527         0.53303
C          6.20232         1.92676        -0.33843
C          6.14522         3.33466        -0.16671
C          7.47974         1.27329        -0.52008
C          7.41017         4.07824        -0.40294
C          6.02372         6.25978        -0.39323
C          6.12098         7.69543         0.21910
C          7.37598         5.55173        -0.59111
C          7.34177         8.47805        -0.31885
C          6.17908        10.60956         0.36018
C          6.20042        12.05524         0.64408
C          7.34459         9.92840         0.14684
C          7.36049        12.76722         0.51953
C          6.12233        14.91279         0.86382
C          6.14965        16.35899         1.10776
C          7.47137        14.21583         0.94098
C          7.48351        16.96957         1.18950
C          6.26487        19.32703         0.08510
C          7.46758        19.10340         0.69159
C          8.69702         1.93775        -0.37470
C          8.67763         3.39282         0.06630
C          9.95373         1.32767        -0.62553
C          9.95822         4.07211        -0.46919
C          8.67999         6.35683        -0.72277
C          8.63092         7.70089         0.03692
C          9.93776         5.58238        -0.35579
C          9.92367         8.49435        -0.21222
C          8.69722        10.62083         0.27822
C          8.58373        12.10486        -0.01712
C          9.78617         9.96698        -0.60600
C          9.83524        12.88543        -0.33542
C          8.51771        15.03546         0.08381
C          8.60956        16.44310         0.66228
C          9.87253        14.34103        -0.02013
C          9.88444        17.22262         0.73926
C          8.78053        19.50733         0.28313
C          9.92150        18.70700         0.51002
C         11.22719         1.93259        -0.44461
C         11.22742         3.38997         0.11302
C         12.36259         1.15309        -0.75654
C         12.45502         4.24463        -0.20521
C         11.11080         6.26082        -0.54299
C         11.17700         7.75072        -0.52861
C         12.36111         5.55269        -0.64400
C         12.38489         8.48913        -0.99103
C         11.18449        10.64813        -0.45337
C         11.13266        12.16822        -0.53088
C         12.22878         9.94508        -1.38434
C         12.31486        12.82536        -0.47520
C         11.05995        14.99703         0.05552
C         11.14827        16.45369         0.39292
C         12.38733        14.25968         0.02071
C         12.33900        17.22345         0.00948
C         11.18384        19.32538         0.43852
C         12.40604        18.60945         0.31154
C         13.69793         1.47601        -0.34252
C         13.73401         3.67840         0.10973
C         14.96988         1.12741        -0.72406
C         14.95245         4.22292        -0.20728
C         13.39805         6.32862        -1.41948
C         13.59116         7.80395        -1.11602
C         15.15038         5.67933        -0.15926
C         14.85754         8.47892        -1.06601
C         13.63102        10.70220        -1.51191
C         13.63876        12.07834        -0.59003
C         14.87722         9.90845        -1.04283
C         14.78998        12.89671        -1.22048
C         13.46417        15.02651        -0.76038
C         13.53347        16.51864        -0.42672
C         14.81422        14.30252        -0.63373
C         14.85171        17.20032        -0.03325
C         13.65958        19.29089         0.44241
C         14.88697        18.61803         0.41127
C         16.11224         1.91528        -0.15978
C         16.16588         3.38465        -0.60592
C         17.12479         1.35189         0.53160
C         17.39477         4.19975        -0.18924
C         16.25443         6.25673        -1.03027
C         16.19132         7.77762        -1.03817
C         17.46275         5.57241        -0.37931
C         17.41306         8.52588        -0.59197
C         16.05150        10.62909        -0.83649
C         16.09409        12.10434        -1.03970
C         17.20984         9.95778        -0.10764
C         17.32433        12.82360        -0.61433
C         15.92054        14.87739        -0.10801
C         15.72544        16.17529         0.61315
C         17.26438        14.17624         0.06789
C         17.53431        17.37755        -0.39613
C         16.12898        19.27461         0.60052
C         17.40422        18.71041         0.29588
C         18.14999         2.21147         1.23597
C         18.55674         3.44539         0.40393
C         19.41955         1.51363         1.65871
C         19.44917         4.38102         1.23883
C         18.61779         6.36531        -0.04524
C         18.62376         7.78246        -0.10030
C         19.79200         5.62950         0.44853
C         19.76799         8.50919         0.28531
C         18.52442        10.71220        -0.10887
C         18.55989        12.07108        -0.25937
C         19.71781        10.01195         0.49713
C         19.79351        12.82655        -0.24338
C         18.50417        15.00625        -0.42876
C         18.56809        16.40176         0.23958
C         19.80507        14.22377        -0.26325
C         19.90910        17.12354         0.06927
C         18.61865        19.36857         0.36226
C         19.89260        18.64591         0.08059
C         20.55105         2.22778         1.95741
C         20.65006         3.64199         1.77304
C         21.75386         4.41123         2.19775
C         21.02181         6.39513         0.89080
C         20.98356         7.86905         0.70781
C         21.85911         5.76394         1.91038
C         22.13393         8.62210         0.89019
C         21.04234        10.68320         0.19788
C         21.05195        12.02874        -0.49770
C         22.18191         9.99983         0.50168
C         22.29889        12.84665        -0.31986
C         21.03166        14.94256        -0.41239
C         21.05532        16.38402        -0.50135
C         22.26894        14.20232        -0.37363
C         22.13703        17.12870        -0.94942
C         21.01385        19.29279        -0.60903
C         22.08445        18.55493        -1.03589
O         10.76711        16.74486         1.80726
O         17.06374        12.67279        -2.04946
O         20.31052        17.84651         1.27664
O          7.35791         4.63412        -1.76229
O         12.90765        14.23631         1.41826
O         16.01913        16.30438         1.79775
O          5.28082        16.84202         2.20588
O         13.69447         2.42405         0.71893
O         10.85562         8.21574         0.87336
O         14.44496        17.10575        -1.41653
O         17.14823         8.33731        -2.01673
O          2.85598        13.50269        -1.28284
O         13.83619        11.02368        -2.81588
O         13.79197         5.87582        -2.48514
O         20.97214         5.60615        -0.38378
O         17.08034        17.23794        -1.51553
O          2.44921         9.07974         1.91591
O          8.85224        12.53798        -1.39027
O          2.59421         4.58401         1.89214
O          7.49168        18.22727         1.80538
O         21.00651        11.68366        -1.93760
H         20.92159        12.52251        -2.43936
O         19.33459         2.91215        -0.69076
H         19.70786         3.66214        -1.20173
O         17.47624         2.65986         2.46035
H         17.19284         1.86232         2.95459
O         19.51627        10.15477         1.95278
H         18.58351         9.87926         2.13218
O         14.55885        13.09176        -2.61413
H         15.35339        12.79568        -3.11045
O          7.22581         8.52735        -1.75678
H          6.33678         8.92614        -1.95800
O          7.92927        14.22748         2.31102
H          7.23399        13.77465         2.84248
O         11.71880         9.88203        -2.72770
H         12.40414        10.36160        -3.29035
O         16.80989         9.83294         1.30264
H         16.36572        10.66727         1.57119
O          9.09601        10.49822         1.67467
H          8.87995         9.58412         1.97087
O         11.17005         3.28972         1.55730
H         12.01117         2.85958         1.83734
O          4.83958         9.78789         2.07568
H          5.40966         9.03446         2.35982
O          5.43490         6.32523        -1.71644
H          5.87386         5.61541        -2.24882
O         18.73071         4.93706         2.36948
H         18.24880         4.20204         2.82134
O          7.98482        15.13849        -1.25577
H          8.10179        14.25122        -1.68109
O          8.62786         7.40139         1.44950
H          9.58189         7.31341         1.71100
O          6.18051         7.62593         1.64584
H          6.90855         7.02810         1.93050
O         14.06557        11.72548         0.71569
H         13.28089        11.33350         1.18362
O          2.55195        -0.08121         0.57695
H          2.62236         0.22422         1.50464
O         16.20715         5.84774        -2.40924
H         16.67424         6.53949        -2.93005
O         17.40256        13.85090         1.45879
H         17.34574        14.69505         1.97283
O          9.28151        10.05568        -1.93303
H         10.02637         9.96062        -2.57739
O          2.13897        17.78989         1.52055
H          2.86637        18.41246         1.78019
O          8.57547         3.47487         1.50060
H          9.43560         3.18505         1.89037
O         16.12327         3.23691        -2.04265
H         16.11291         4.13567        -2.46044
O         11.68195        10.45876         0.90042
H         10.91442        10.57590         1.51939
O         13.01269        14.98764        -2.12369
H         13.64861        15.50558        -2.66385
O         18.38114        16.26479         1.64900
H         18.94050        16.95263         2.08742
O          2.46146        13.69404         2.18431
H          1.54890        13.91319         2.45812
O          3.56538        10.88495        -1.14983
H          3.28427        11.81341        -1.32802
O          5.38764         5.35903         1.84606
H          4.59502         5.02050         2.32573
O          4.65675         8.74202        -1.45681
H          4.55643         7.87464        -1.91682
O          8.89355         6.61192        -2.13033
H          8.22456         7.28383        -2.42194
O         14.72433         6.34349         0.79562
O         11.83036        13.80438         2.28367
H         11.40953        14.65978         2.55973
O          4.50534        19.36409         1.77240
H          5.05230        18.95833         2.48458
O         18.39648        15.19967        -1.84974
H         18.06561        14.36973        -2.26140
O         10.02048         3.81684        -1.89305
H          9.30970         4.35512        -2.31869
O          5.17978        12.92592         2.59145
H          4.34566        13.27714         2.97639
H          0.29004         1.30837         0.02076
H          0.28100         3.63745         0.68632
H          2.38387         0.69157        -1.31961
H          0.21897         5.62169         0.60023
H          0.14403         8.05329         0.48323
H          0.12346        10.17837         0.48423
H          0.26701        12.51390         1.33048
H          0.48299        14.61136        -0.93797
H          0.31512        16.99723        -0.29619
H          2.05435        18.69004        -1.48382
H          4.96889         0.14048        -0.54972
H          4.12930        19.95254        -1.17390
H          7.47863         0.20348        -0.78325
H          6.24451        19.99320        -0.79019
H          9.94332         0.27971        -0.97033
H          8.92234        20.49680        -0.17799
H         12.19422         0.21370        -1.30801
H         11.22818        20.42447         0.43972
H         15.16220         0.35211        -1.48056
H         13.64081        20.36769         0.66587
H         17.10411         0.27530         0.76835
H         16.10580        20.31577         0.96044
H         19.41657         0.41904         1.77714
H         18.67649        20.42610         0.66606
H         21.44135         1.69310         2.32539
H         22.51906         3.93833         2.83366
H         22.60818         6.37537         2.43501
H         23.07200         8.12300         1.17198
H         23.17302        10.45823         0.37524
H         23.27010        12.33263        -0.29037
H         23.21313        14.76522        -0.33639
H         23.02638        16.62066        -1.34821
H         20.96584        20.37304        -0.80779
H         22.92719        19.06791        -1.52156
