         244
 CSIRO Nanostructure Databank - Neutral Graphene Oxide Data Set
C          1.71100         2.45847         1.82893
C          1.60106         3.79639         1.33630
C          2.75798         1.65229         1.48035
C          2.49628         4.30943         0.42094
C          1.23300         6.40504         0.11336
C          1.19737         7.80859        -0.01091
C          2.38588         5.65679        -0.10999
C          2.34658         8.54696        -0.26564
C          1.20580        10.73726         0.12846
C          1.16603        12.09231         0.14123
C          2.39201         9.98804        -0.21970
C          2.29995        12.88819        -0.33574
C          1.22890        15.06717         0.37021
C          1.23048        16.41427         0.57735
C          2.39410        14.33944        -0.06122
C          2.37715        17.22655         0.18679
C          2.52765        18.60362         0.68358
C          3.80299         2.12637         0.60523
C          3.61760         3.45621        -0.03425
C          4.93455         1.37857         0.40726
C          4.80707         4.11469        -0.70604
C          3.50418         6.30342        -0.82132
C          3.53709         7.84408        -0.76998
C          4.84640         5.59401        -1.08923
C          4.84775         8.52417        -0.70558
C          3.60620        10.64776        -0.43738
C          3.61462        12.11312        -0.57275
C          4.85973         9.92785        -0.52880
C          4.88120        12.83959        -0.40591
C          3.62758        14.97567        -0.18314
C          3.67477        16.44408        -0.17110
C          4.87890        14.24433        -0.27376
C          4.95141        17.11814         0.07706
C          3.73022        19.22413         0.65561
C          4.96442        18.51596         0.36320
C          6.13510         1.87228        -0.27458
C          6.11825         3.39437        -0.73395
C          7.42781         1.32962         0.09148
C          7.35357         4.13441        -0.55104
C          6.04857         6.36227        -0.58628
C          6.06634         7.74850        -0.62424
C          7.31826         5.61449        -0.22197
C          7.34353         8.47214        -0.46790
C          6.09244        10.65967        -0.47855
C          6.10222        12.10138        -0.42826
C          7.34669         9.94644        -0.46045
C          7.32845        12.81756        -0.42078
C          6.12337        14.94014        -0.13300
C          6.14620        16.36464         0.06989
C          7.35068        14.21321        -0.20430
C          7.39783        17.02464         0.29107
C          6.18814        19.17081         0.51287
C          7.41196        18.46096         0.46758
C          8.59121         2.03066        -0.17726
C          8.56616         3.45833        -0.43980
C          9.86405         1.37235        -0.03920
C          9.82924         4.19478        -0.39793
C          8.54152         6.31688        -0.81966
C          8.52715         7.78482        -0.46243
C          9.83203         5.59597        -0.47864
C          9.81944         8.51551        -0.17990
C          8.54710        10.63014        -0.55509
C          8.58783        12.10723        -0.82930
C          9.81453         9.87286        -0.86652
C          9.86042        12.77851        -0.36120
C          8.61793        14.88442         0.03826
C          8.59347        16.27498         0.36247
C          9.83489        14.14151        -0.01345
C          9.81816        16.99522         0.74615
C          8.62952        19.15786         0.58882
C          9.85513        18.46863         0.66565
C         11.04765         2.04168        -0.17198
C         11.07051         3.48046        -0.31536
C         12.32116         1.23808        -0.22535
C         12.29928         4.17608        -0.37392
C         11.06265         6.31750        -0.48204
C         11.07945         7.74163        -0.50005
C         12.30175         5.60052        -0.47373
C         12.28730         8.44573        -0.64009
C         11.09846        10.62776        -0.59626
C         11.08324        12.04348        -0.41590
C         12.29650         9.90790        -0.64021
C         12.35253        12.73705        -0.40953
C         11.14672        14.71745         0.50490
C         11.16033        16.23134         0.69313
C         12.35192        14.18249        -0.23587
C         12.31775        17.03412         0.35597
C         11.08133        19.12581         0.78166
C         12.31516        18.43676         0.57506
C         13.56898         2.04956        -0.00540
C         13.56072         3.46739        -0.20163
C         14.74717         1.37996         0.25808
C         14.77185         4.17625        -0.14706
C         13.52231         6.32947        -0.58087
C         13.51575         7.71443        -0.71514
C         14.83902         5.58663        -0.68845
C         14.82697         8.41415        -1.01161
C         13.56647        10.60992        -0.71619
C         13.53705        12.05595        -0.67241
C         14.76611         9.90697        -0.82844
C         14.72843        12.85888        -1.16253
C         13.48999        14.93529        -0.41697
C         13.43368        16.44344        -0.45543
C         14.76083        14.28703        -0.65652
C         14.74721        17.13273        -0.19234
C         13.52510        19.17241         0.46897
C         14.75804        18.54107         0.14378
C         15.97383         2.08584         0.39860
C         15.97009         3.50742         0.21453
C         17.18067         1.40798         0.67235
C         17.18310         4.22864         0.44127
C         15.97302         6.41458        -0.11548
C         15.99684         7.75686        -0.28637
C         17.17334         5.74096         0.51345
C         17.20231         8.56998         0.18682
C         16.06107        10.61235        -0.91398
C         16.05262        12.10339        -1.04138
C         17.29339         9.96281        -0.39989
C         17.25449        12.80044        -0.48836
C         15.93629        14.99039        -0.49911
C         15.95289        16.42927        -0.29824
C         17.21800        14.27487        -0.31573
C         17.19677        17.11268        -0.16936
C         15.95929        19.25260         0.11389
C         17.20184        18.60407        -0.41028
C         18.38757         2.11241         0.80816
C         18.35818         3.54585         0.72766
C         19.62950         1.44185         1.04146
C         19.60528         4.32850         1.04097
C         18.42400         6.31116        -0.20108
C         18.50829         7.80612         0.00279
C         19.71443         5.57675         0.17762
C         19.72167         8.46313         0.01142
C         18.47999        10.64357        -0.34099
C         18.55686        12.08629        -0.53838
C         19.74510         9.97680         0.16352
C         19.73381        12.79810        -0.41804
C         18.47787        15.02166        -0.23301
C         18.42400        16.39984        -0.07750
C         19.77112        14.31216        -0.56869
C         19.64934        17.14235         0.31559
C         18.45251        19.29392         0.04434
C         19.63917        18.62259         0.26376
C         20.83310         2.13985         1.13680
C         20.88460         3.53670         1.05139
C         22.09345         4.29160         1.18264
C         21.01497         6.31348         0.24807
C         20.98157         7.77757         0.04645
C         22.14144         5.63717         0.92820
C         22.19939         8.51534        -0.00401
C         20.95858        10.60026        -0.54929
C         20.99926        12.09719        -0.29285
C         22.22911         9.86125        -0.23916
C         22.14137        12.78788         0.01102
C         20.99998        14.95328         0.05331
C         20.97177        16.40950         0.37677
C         22.11893        14.20871         0.25467
C         22.17955        17.23657         0.28775
C         20.87341        19.29895         0.47048
C         22.10028        18.60978         0.41828
O          3.15963         7.09446        -1.98328
O         17.03710        13.32429         0.86774
O          2.82805        17.05978        -1.19058
O          2.76920        12.56854        -1.68345
O         20.17171        16.65923         1.60382
O         20.60321         5.48206        -0.96058
O         10.50314        16.55317         1.96791
O          3.78516         3.44041        -1.49744
O         16.32828        11.30779        -2.22863
O          6.09993         2.29658        -1.66866
O         14.47575        13.02632        -2.59818
H         14.94238        12.27758        -3.04455
O         17.17730         6.11691         1.91798
H         17.97470         5.69973         2.34365
O         13.09684        16.75446        -1.87218
H         13.65180        16.17221        -2.43563
O          8.41344         6.24864        -2.26362
H          9.05569         6.87540        -2.65851
O         19.85123        10.26089         1.57641
H         19.00659         9.97373         1.99222
O          5.04762         5.57343        -2.52630
H          4.37929         4.95788        -2.90051
O          9.85089         8.78333         1.25335
H          9.76392         7.92930         1.72536
O         15.11434         5.41919        -2.11257
H         15.29177         6.32172        -2.47944
O         15.10041         8.19858        -2.44795
H         14.40215         8.66172        -2.95808
O          8.64233        12.21295        -2.32366
H          7.73273        12.04857        -2.65638
O         17.07258         8.79029         1.63091
H         17.01083         7.88374         2.03789
O         19.46823         4.83698         2.43402
H         19.48209         4.05611         3.02829
O         17.18022        18.75547        -1.90133
H         16.27209        18.53525        -2.20179
O         20.70966        10.42563        -1.97784
H         21.54240        10.60999        -2.45956
O         18.19492         6.08487        -1.61158
H         19.08375         6.01535        -2.03319
O         11.30505        14.13576         1.83860
H         10.84710        14.74558         2.46394
O         12.26504         0.12741         0.68091
H         12.22644         0.47998         1.59320
O         19.92223        14.54631        -2.02570
H         20.65721        13.97484        -2.33582
O          7.42067         5.70264         1.23764
H          8.23139         5.21739         1.50370
O          9.78266         9.63455        -2.30654
H          9.58610        10.50901        -2.72407
H          0.94043         2.09040         2.52037
H          0.76751         4.41056         1.70290
H          2.84096         0.63468         1.88830
H          0.33148         5.90775         0.49705
H          0.25253         8.31270         0.23011
H          0.31657        10.18717         0.46314
H          0.27369        12.59692         0.53564
H          0.31912        14.50289         0.61572
H          0.37253        16.90423         1.06093
H          1.63381        19.12783         1.05347
H          5.03676         0.42944         0.95749
H          3.81620        20.27127         0.98222
H          7.48169         0.33991         0.56894
H          6.20669        20.25278         0.70981
H          9.87767         0.28267         0.10976
H          8.62188        20.25643         0.63679
H         12.39142         0.78961        -1.25727
H         11.09832        20.22368         0.84767
H         14.73472         0.28544         0.36423
H         13.51069        20.25461         0.66401
H         17.17365         0.31297         0.77684
H         15.96942        20.32247         0.36959
H         19.63067         0.34462         1.10448
H         18.44587        20.39515         0.06701
H         21.77299         1.57914         1.25154
H         23.00307         3.76970         1.51889
H         23.07040         6.19480         1.11167
H         23.14910         7.97369         0.11618
H         23.20055        10.36587        -0.34386
H         23.09847        12.26663         0.14632
H         23.03449        14.67754         0.64419
H         23.15267        16.75760         0.10915
H         20.87422        20.39700         0.52683
H         23.03017        19.19726         0.42486
