         429
 CSIRO Nanostructure Databank - Neutral Graphene Oxide Data Set
C          1.28395         3.38585        -0.58190
C          0.19420         4.00690        -0.04299
C          1.30343         6.20762        -0.08240
C          0.15704         5.41833         0.12751
C          1.30940         7.64358         0.18945
C          0.10575         8.34274         0.39680
C          1.28523        10.47046         0.60578
C          0.08873         9.71880         0.56813
C          1.25988        11.92329         0.71732
C          0.00326        12.62805         0.79977
C          1.16280        14.78270         0.97836
C         -0.05817        13.97623         0.96441
C          1.11061        16.28889         0.88529
C         -0.15177        17.03624         0.63505
C          1.07062        19.15717         1.10553
C         -0.14743        18.37507         0.67202
C          1.13509        20.59432         0.61931
C          0.00322        21.27750         0.16291
C          1.20691        23.39143         0.21507
C          0.04908        22.64531        -0.08112
C          1.21337        24.84860         0.08584
C          0.02678        25.54552        -0.16887
C          1.20086        27.67099        -0.11866
C          0.01747        26.93617        -0.25275
C          1.14105        29.14381        -0.00832
C         -0.01292        29.91341        -0.48170
C          1.26912        32.01769        -0.45703
C          0.04037        31.26519        -0.59591
C          1.26998        33.46138        -0.60078
C          0.08497        34.21075        -0.67442
C          1.31027        36.32032        -0.73154
C          0.10200        35.60823        -0.73093
C          1.33344        37.76101        -0.79904
C          3.73619         3.45469        -0.98058
C          2.44171         4.18959        -1.09431
C          3.74278         6.27357        -0.46402
C          2.50089         5.57969        -0.51296
C          3.77276         7.68912        -0.11639
C          2.53649         8.37216         0.20726
C          3.78983        10.48898         0.68545
C          2.51620         9.76729         0.49130
C          3.78762        12.00031         0.93724
C          2.45372        12.67225         0.69498
C          3.63458        14.83996         0.50718
C          2.43378        14.08661         0.70247
C          3.62130        16.25779         0.48646
C          2.32843        17.01294         0.33864
C          3.57116        19.13093         0.94695
C          2.37102        18.44779         0.80831
C          3.59212        20.59184         1.07094
C          2.34864        21.30820         0.79798
C          3.56639        23.50542         1.10252
C          2.36634        22.71364         0.64174
C          3.65641        24.89121         0.51116
C          2.43882        25.57441         0.20432
C          3.69903        27.70853         0.02852
C          2.44036        26.99380         0.05478
C          3.70372        29.10381        -0.12993
C          2.47940        29.89764         0.04015
C          3.74377        32.01422        -0.39270
C          2.47560        31.32980        -0.30088
C          3.73067        33.44741        -0.46174
C          2.53087        34.15749        -0.57064
C          3.76766        36.30711        -0.73925
C          2.54634        35.60449        -0.66205
C          3.77829        37.75304        -0.89170
C          2.50790        38.44766        -0.86159
C          6.18440         3.45225        -0.96087
C          4.94287         4.14145        -0.86259
C          6.26121         6.25761        -0.42379
C          4.94381         5.57654        -0.66512
C          6.20310         7.75844        -0.60448
C          4.97304         8.39658        -0.24043
C          6.21004        10.60087        -0.22352
C          5.04726         9.80009         0.20072
C          6.15838        12.03694        -0.09003
C          4.94621        12.74353         0.29080
C          6.04664        14.92161        -0.27588
C          4.86658        14.12702         0.24165
C          6.08858        16.36250         0.22119
C          4.82677        17.02163         0.49344
C          6.06905        19.07511         1.12116
C          4.80718        18.39963         0.79679
C          6.06310        20.58188         1.33421
C          4.79344        21.30530         1.14980
C          6.07625        23.43110         1.04764
C          4.86294        22.73810         1.03514
C          6.10992        24.87734         0.85249
C          4.88579        25.57110         0.50986
C          6.18146        27.65123         0.24527
C          4.93847        26.97740         0.19965
C          6.26495        29.04555        -0.20536
C          4.92598        29.82054        -0.45626
C          6.27588        31.94791        -0.71260
C          4.94058        31.29019        -0.44535
C          6.25754        33.44508        -0.51846
C          5.00516        34.18183        -0.15545
C          6.21990        36.27509        -0.78346
C          5.01094        35.61471        -0.62220
C          6.25060        37.69111        -1.30409
C          4.96650        38.42814        -1.05309
C          8.61998         3.42656        -1.31624
C          7.41462         4.14769        -1.15796
C          8.65782         6.31117        -1.22497
C          7.40193         5.57507        -1.12615
C          8.64221         7.81925        -1.11097
C          7.35091         8.51707        -0.84863
C          8.45242        10.81520        -1.31723
C          7.33061         9.95340        -0.74545
C          8.56758        12.14085        -0.61244
C          7.35192        12.76126        -0.25570
C          8.56014        14.92803        -0.32579
C          7.33797        14.20513         0.15835
C          8.53911        16.41080        -0.19149
C          7.27595        17.06556         0.23494
C          8.51229        19.15111         0.74576
C          7.34000        18.44162         0.70250
C          8.59609        20.52014         1.40663
C          7.32938        21.31842         1.21411
C          8.59089        23.43318         1.25155
C          7.34107        22.70122         1.15989
C          8.47906        24.89883         1.63464
C          7.30916        25.59541         0.97500
C          8.60089        27.74636         0.82509
C          7.37022        26.99835         0.70365
C          8.58660        29.17891         0.59212
C          7.46419        29.82781         0.12028
C          8.69631        32.04238         0.00864
C          7.36550        31.34272         0.20253
C          8.70630        33.41915        -0.32405
C          7.44830        34.13190        -0.48727
C          8.67008        36.28478        -0.56281
C          7.45939        35.58093        -0.58829
C          8.66419        37.74411        -0.61989
C          7.48607        38.42708        -0.88080
C         11.15819         3.42608        -1.61055
C          9.85241         4.08387        -1.74040
C         11.13918         6.35533        -1.89510
C          9.83057         5.60789        -1.83419
C         11.12488         7.84614        -1.75660
C          9.81715         8.59850        -1.63190
C         11.08081        10.79792        -1.17427
C          9.80662        10.10140        -1.52415
C         11.06363        12.10884        -0.71195
C          9.80837        12.81216        -0.53532
C         11.03457        14.91951        -0.09466
C          9.84352        14.21282        -0.27294
C         10.99825        16.34792         0.15360
C          9.82221        17.05242         0.10598
C         11.04129        19.25190         0.38777
C          9.76538        18.51934         0.27461
C         11.02755        20.66612         0.80102
C          9.83894        21.31318         1.06147
C         11.08502        23.44786         1.16326
C          9.81538        22.75288         1.19944
C         11.11388        24.90133         1.42685
C          9.80580        25.66410         1.54983
C         11.07604        27.76839         1.15210
C          9.82036        27.09835         1.17683
C         11.10573        29.25661         1.11758
C          9.81296        29.98255         0.85760
C         11.12988        32.06298         0.26725
C          9.88364        31.37953         0.34440
C         11.14211        33.45483        -0.04765
C          9.91792        34.14782        -0.28581
C         11.11647        36.30254        -0.29251
C          9.91036        35.58386        -0.40166
C         11.10950        37.75137        -0.26677
C          9.89048        38.43904        -0.40703
C         13.58293         3.44669        -1.24847
C         12.36688         4.11207        -1.52906
C         13.63958         6.31960        -1.18445
C         12.42764         5.58681        -1.70054
C         13.48368         7.75759        -0.77727
C         12.39982         8.57847        -1.42387
C         13.54162        10.69149        -0.50255
C         12.36904        10.05713        -1.16590
C         13.52982        12.09313        -0.30551
C         12.29547        12.81944        -0.38386
C         13.51366        14.89750         0.19886
C         12.28053        14.19724        -0.08567
C         13.52791        16.30851         0.39343
C         12.24181        17.02256         0.68774
C         13.49127        19.19581         0.36069
C         12.30381        18.49742         0.41599
C         13.45513        20.64119         0.43238
C         12.28054        21.35680         0.68403
C         13.55110        23.48916         0.81658
C         12.27511        22.78831         0.86417
C         13.57470        24.92971         1.02073
C         12.36204        25.64587         1.16163
C         13.57324        27.82318         1.20190
C         12.30423        27.06370         1.18523
C         13.55752        29.26070         0.85635
C         12.38500        29.96462         0.82714
C         13.58914        32.08822         0.36023
C         12.38390        31.38878         0.50933
C         13.61371        33.48825         0.04329
C         12.37091        34.17976        -0.08613
C         13.57965        36.31644        -0.12831
C         12.35792        35.60017        -0.19052
C         13.56163        37.75371        -0.00833
C         12.32784        38.44218        -0.07924
C         15.94381         3.38303        -0.62763
C         14.76983         4.11154        -0.81612
C         15.86474         6.22611        -0.08243
C         14.77150         5.55683        -0.60035
C         15.91234         7.69059         0.00895
C         14.64919         8.45848        -0.15933
C         15.88542        10.60534         0.20301
C         14.69759         9.94672        -0.17564
C         15.94879        12.01341         0.24427
C         14.74198        12.77442         0.05158
C         15.96324        14.86667         0.76600
C         14.72459        14.16992         0.25469
C         15.99159        16.34889         0.44639
C         14.75308        17.04350         0.41261
C         15.98530        19.15975         0.17244
C         14.76371        18.47852         0.31533
C         15.97410        20.62147        -0.10582
C         14.69512        21.38080         0.16264
C         16.04421        23.41621         0.90190
C         14.72100        22.80586         0.52615
C         16.03151        24.91034         0.76208
C         14.83210        25.60367         0.93468
C         16.09285        27.74692         0.56771
C         14.88065        27.07240         1.08970
C         15.94390        29.12487        -0.01757
C         14.86870        29.92791         0.67468
C         16.11002        32.05225        -0.07996
C         14.89110        31.40714         0.48222
C         16.18279        33.54257         0.09934
C         14.83019        34.20000        -0.08387
C         16.06173        36.32828        -0.15796
C         14.81509        35.60988        -0.14170
C         16.01785        37.73258         0.14408
C         14.77900        38.41814         0.22421
C         18.43063         3.34992        -0.09089
C         17.09987         3.96497         0.04305
C         18.33395         6.16519         0.60372
C         17.02952         5.45088         0.40878
C         18.34549         7.65646         0.52615
C         17.06379         8.36712         0.29361
C         18.39475        10.51768         0.52907
C         17.06449         9.81455         0.72398
C         18.38210        11.96030         0.64846
C         17.20136        12.67952         0.51067
C         18.46224        14.92216         0.69555
C         17.22156        14.17466         0.26459
C         18.47094        16.30753         0.57246
C         17.21334        17.04061         0.40839
C         18.47998        19.18775         0.34271
C         17.22548        18.46459         0.27749
C         18.51595        20.59229         0.24866
C         17.30654        21.36679        -0.22445
C         18.48069        23.46191         0.40145
C         17.27911        22.76550         0.34807
C         18.47785        24.90009         0.54660
C         17.26883        25.60209         0.61453
C         18.39095        27.61613        -0.40513
C         17.23178        27.03468         0.36946
C         18.36686        29.13162        -0.49766
C         17.24810        29.85982        -0.24509
C         18.42118        32.00129        -0.89412
C         17.23475        31.32125        -0.38067
C         18.40365        33.43302        -1.11305
C         17.31465        34.24992        -0.63553
C         18.44050        36.55572        -0.68514
C         17.28561        35.68089        -0.53495
C         18.44424        37.85330        -0.06791
C         17.22852        38.42571         0.35162
C         19.59415         4.06048         0.10172
C         20.81078         6.20589         0.51075
C         19.60334         5.44782         0.38891
C         20.83118         7.57322         0.46289
C         19.60622         8.35058         0.04622
C         20.83228        10.57453         0.35389
C         19.58968         9.83750         0.37297
C         20.89155        11.89117         0.68592
C         19.66132        12.64265         0.96362
C         20.94391        14.94444         0.93527
C         19.68945        14.19238         1.03462
C         20.93275        16.29235         0.75651
C         19.70877        17.04425         0.64249
C         20.92227        19.20936         0.66055
C         19.70824        18.45875         0.55029
C         20.93823        20.57560         0.58341
C         19.73617        21.32095         0.36357
C         20.95808        23.50965         0.36242
C         19.74232        22.75228         0.31093
C         20.98392        24.86799         0.52399
C         19.74889        25.64442         0.58895
C         20.93800        27.90226        -0.15765
C         19.72170        27.13278         0.19775
C         20.86006        29.12830        -0.70145
C         19.55481        29.71166        -1.21693
C         20.60898        31.81293        -1.97255
C         19.53659        31.22643        -1.28799
C         20.57441        33.16646        -2.29222
C         19.49181        33.94533        -1.88574
C         20.72866        37.03356        -1.47755
C         19.57759        36.25038        -1.46528
C         20.77637        38.20799        -0.69957
C         19.64317        38.62723        -0.03185
O         15.12831        21.02697        -1.23835
O         19.62076        13.34703         2.24951
O          9.69140         9.41097        -2.83065
O         10.33581        29.85868         2.22475
O         18.40080         7.01926         1.82814
O         11.18963         7.20804        -3.07303
O         19.70360        26.74936         1.58646
O         14.40217        27.54412         2.39836
O         19.49378        35.22990        -2.41989
O         16.76139         4.44851         1.41642
O         13.47306         6.05519        -2.60884
O         10.33221        19.16038        -0.95088
O          5.72077        29.23686        -1.56202
O         12.80997         9.48027        -2.48117
O         13.53246         7.93086         0.67321
O          4.70405         9.85990         1.65249
O          9.58899         4.85203        -3.01912
O         15.21956        30.78540         1.80217
O         18.24214        27.14904        -1.73838
O          8.42945        15.76042        -1.52732
O         10.58897        25.33298         2.74679
O          6.07069        19.64040         2.49125
O          9.07058         7.01010         0.05895
O          1.26564        15.69737         2.18562
O          1.71151        29.60719         1.25807
O          7.41043        14.25828         1.60973
H          6.62779        13.78803         1.97120
O          5.91862        14.93482        -1.71344
H          6.75602        15.31848        -2.07682
O          6.91698        31.64113         1.56296
H          7.61984        31.35369         2.18556
O         15.40185        28.89370        -1.36421
H         16.08290        28.37788        -1.85661
O          2.18461         4.38790        -2.56161
H          1.29623         4.79811        -2.63903
O          3.32906        23.73114         2.54565
H          4.11674        24.19482         2.90380
O          7.97102        11.20741        -2.64059
H          8.32826        10.54762        -3.28207
O         19.53695         8.27144        -1.42008
H         20.35138         8.67910        -1.78283
O          6.54740         6.08945         1.02334
H          7.45963         6.44395         1.15783
O          8.10232        24.87471         3.04841
H          8.94463        24.79249         3.55599
O          3.99637        12.18462         2.37479
H          4.49001        11.38905         2.68811
O          2.08025        17.07920        -1.11764
H          2.89142        17.42935        -1.54420
O          5.05607        34.23451         1.32955
H          5.42249        33.37402         1.63906
O         17.17746        14.30799        -1.19464
H         17.95670        13.85011        -1.57294
O         19.44669        29.27672        -2.60322
H         19.04091        28.35263        -2.57048
O          6.64476        31.71441        -2.09423
H          6.44688        30.76439        -2.28960
O          6.34588        37.57559        -2.78867
H          5.57232        37.04796        -3.08286
O         16.13604        23.15968         2.37398
H         15.56150        23.81766         2.82386
O         15.94533        14.75303         2.21613
H         15.07707        15.07299         2.53830
O         17.56806        21.53327        -1.65695
H         16.68640        21.62669        -2.09117
O         16.51814        33.72800         1.53119
H         16.05428        33.02254         2.03536
O          0.96349        19.24561         2.56528
H          1.75267        19.72590         2.89549
O         12.08452        16.92827         2.16747
H         12.84289        17.39856         2.57598
O         16.89496         9.77161         2.18054
H         16.14813         9.16944         2.38451
O          8.71376        20.25094         2.84605
H          7.82449        19.92919         3.14064
H          1.29469         2.29620        -0.72876
H         -0.67942         3.41701         0.27052
H         -0.76253         5.86828         0.52354
H         -0.85240         7.80672         0.38242
H         -0.88376        10.21187         0.68770
H         -0.93689        12.06183         0.79226
H         -1.02667        14.47232         1.11655
H         -1.07693        16.48634         0.40446
H         -1.09084        18.91493         0.50772
H         -0.94137        20.74589        -0.01018
H         -0.85388        23.13857        -0.46269
H         -0.92897        25.01370        -0.25433
H         -0.94252        27.45282        -0.38272
H         -0.93596        29.38550        -0.75934
H         -0.86654        31.79622        -0.91573
H         -0.88998        33.70527        -0.66426
H         -0.84861        36.15905        -0.77594
H          0.37384        38.29861        -0.80902
H          3.73864         2.36366        -1.12067
H          2.51071        39.54555        -0.92615
H          6.18028         2.35303        -1.01196
H          4.96123        39.52281        -1.17010
H          8.62631         2.34023        -1.14587
H          7.48807        39.52708        -0.91822
H         11.15552         2.34698        -1.39389
H          9.88797        39.53939        -0.40660
H         13.59085         2.34685        -1.26638
H         12.31914        39.53969        -0.00368
H         15.99800         2.33997        -0.97246
H         14.78169        39.50195         0.41083
H         18.48103         2.29944        -0.41272
H         17.21174        39.46173         0.71976
H         20.56031         3.55129        -0.03238
H         21.75677         5.65654         0.63908
H         21.79272         8.09466         0.57435
H         21.76717        10.03662         0.14042
H         21.86452        12.39353         0.77423
H         21.89734        14.41934         1.08469
H         21.89587        16.81813         0.71871
H         21.87237        18.68735         0.83143
H         21.89687        21.09898         0.69475
H         21.91882        22.98021         0.29874
H         21.94682        25.39180         0.60075
H         21.91434        27.50602         0.16355
H         21.78996        29.68799        -0.88790
H         21.44038        31.18963        -2.32665
H         21.36644        33.62582        -2.89696
H         21.57240        36.75090        -2.11958
H         21.68902        38.81899        -0.68693
H         19.63069        39.59192         0.49421
