         424
 CSIRO Nanostructure Databank - Neutral Graphene Oxide Data Set
C          1.27343         3.37935         0.41793
C          0.09307         4.05544         0.70242
C          1.19391         6.22670         0.44409
C          0.04385         5.45517         0.70946
C          1.17548         7.67145         0.42007
C         -0.04541         8.41531         0.53481
C          1.12629        10.56949         0.39507
C         -0.07446         9.78454         0.48951
C          1.10987        11.96976         0.42902
C         -0.09284        12.75772         0.51400
C          1.07887        14.81320        -0.33688
C         -0.11410        14.08786         0.23654
C          1.09823        16.31776        -0.11795
C         -0.08382        17.03982         0.08598
C          1.12620        19.14308        -0.04661
C         -0.07067        18.43536         0.09076
C          1.15036        20.64566        -0.26564
C         -0.07823        21.39026         0.20361
C          1.23277        23.46342         0.29932
C         -0.01506        22.71432         0.43572
C          1.22373        24.90680         0.28774
C          0.01717        25.64976         0.32047
C          1.24681        27.75180         0.41945
C          0.02704        27.02944         0.36834
C          1.25562        29.21793         0.49043
C          0.08500        29.95963         0.66053
C          1.27468        32.08165         0.43742
C          0.09876        31.36280         0.66383
C          1.32759        33.54525         0.52737
C          0.23503        34.27665         1.06772
C          1.48238        36.35300         0.90651
C          0.30058        35.64678         1.23104
C          1.57656        37.77005         1.10473
C          3.67170         3.40937        -0.13703
C          2.46280         4.09537         0.12765
C          3.58940         6.27486        -0.13132
C          2.42322         5.54052         0.15645
C          3.60905         7.69595        -0.00514
C          2.38424         8.39312         0.25419
C          3.58848        10.52831         0.13064
C          2.38457         9.83636         0.27057
C          3.53986        12.00221        -0.17483
C          2.41856        12.72614         0.55266
C          3.55258        14.83339        -0.14228
C          2.38305        14.17019         0.06689
C          3.55191        16.25225        -0.67857
C          2.31650        17.01644        -0.24472
C          3.61583        19.15600        -0.26286
C          2.34323        18.42847        -0.17451
C          3.64962        20.54386        -0.08622
C          2.39820        21.25877         0.37129
C          3.68313        23.45575         0.08090
C          2.43202        22.76521         0.20007
C          3.69887        24.88474         0.13842
C          2.45867        25.61522         0.26373
C          3.75673        27.76269         0.56448
C          2.45426        27.03486         0.34972
C          3.71503        29.21934         0.17327
C          2.48835        29.92746         0.30157
C          3.68837        32.03384        -0.14872
C          2.48384        31.35224         0.20427
C          3.61272        33.49529        -0.54225
C          2.49606        34.23346         0.16056
C          3.81130        36.34675         0.10187
C          2.59609        35.63529         0.37872
C          3.88835        37.75481         0.32438
C          2.72879        38.44810         0.81845
C          6.10049         3.44055        -0.61548
C          4.86279         4.09205        -0.46373
C          6.11293         6.33255        -0.65620
C          4.78031         5.55717        -0.60443
C          6.09539         7.75167        -0.22740
C          4.84165         8.41951        -0.05766
C          6.06919        10.56259         0.14018
C          4.84099         9.84126         0.07688
C          6.05621        12.01752         0.13575
C          4.84635        12.72594         0.01896
C          6.04999        14.84187        -0.14392
C          4.83264        14.13311        -0.03974
C          6.06101        16.29909        -0.27625
C          4.84542        16.99856        -0.42396
C          6.08559        19.13007        -0.41654
C          4.84370        18.41826        -0.39732
C          6.07033        20.54857        -0.40459
C          4.87361        21.26929        -0.19024
C          6.13059        23.42651        -0.23150
C          4.89403        22.71865        -0.10720
C          6.14415        24.86007        -0.17882
C          4.92916        25.59342         0.00612
C          6.12357        27.73294        -0.25251
C          4.95464        27.02476         0.03137
C          6.14480        29.17879        -0.31592
C          4.89467        29.90481        -0.14347
C          6.06284        32.01133        -0.94577
C          4.86027        31.31855        -0.35126
C          6.11868        33.48783        -0.64419
C          4.94785        34.20186        -0.46172
C          6.15451        36.35101        -0.62288
C          4.98011        35.64417        -0.33221
C          6.24493        37.77170        -0.40380
C          5.09351        38.44061         0.09613
C          8.61399         3.44000        -0.53983
C          7.33913         4.14951        -0.63014
C          8.58342         6.23335        -0.09147
C          7.33389         5.54934        -0.57443
C          8.59106         7.75211        -0.37328
C          7.28845         8.44441        -0.05585
C          8.56043        10.56888         0.19790
C          7.30905         9.86357         0.12992
C          8.54092        12.03610         0.55504
C          7.27511        12.74268         0.14546
C          8.53004        14.85674        -0.42901
C          7.26425        14.12312        -0.07827
C          8.55905        16.25225         0.17206
C          7.29337        17.00376        -0.20013
C          8.59971        19.07928        -0.29119
C          7.32884        18.40005        -0.35383
C          8.63883        20.51935        -0.59034
C          7.32202        21.27940        -0.64926
C          8.59470        23.40822        -0.47678
C          7.35563        22.73173        -0.43907
C          8.59885        24.83357        -0.39014
C          7.37534        25.55411        -0.28628
C          8.56335        27.69796        -0.38728
C          7.37214        27.00197        -0.35808
C          8.61123        29.13343        -0.82262
C          7.33657        29.88380        -0.54295
C          8.58716        32.01167        -0.72544
C          7.36935        31.29933        -0.68528
C          8.59346        33.45558        -0.85215
C          7.37867        34.15665        -0.78990
C          8.63686        36.34584        -1.31487
C          7.34637        35.60474        -1.05089
C          8.62489        37.87851        -1.36832
C          7.42301        38.47889        -0.69364
C         11.10796         3.44863        -0.53748
C          9.82728         4.09580        -0.52013
C         11.08468         6.31981        -0.33615
C          9.81811         5.59231        -0.73522
C         11.07157         7.69780        -0.08813
C          9.79303         8.40232         0.30363
C         11.03699        10.56899         0.16529
C          9.79563         9.90081         0.13826
C         11.09805        12.05117         0.45301
C          9.80136        12.76984         0.17289
C         11.02282        14.84115        -0.33141
C          9.78796        14.10605        -0.09378
C         11.09332        16.27674        -0.24913
C          9.86244        16.98221        -0.10124
C         11.05563        19.15605         0.26889
C          9.81034        18.39457        -0.09862
C         11.08664        20.59834        -0.16904
C          9.88685        21.28300        -0.39214
C         11.09450        23.41450        -0.44313
C          9.85899        22.70192        -0.48218
C         11.07863        24.86127        -0.38093
C          9.84497        25.52352        -0.33012
C         11.09080        27.73568        -0.03684
C          9.80354        26.96994        -0.10451
C         11.04248        29.19675        -0.26029
C          9.87098        29.88076        -0.44758
C         11.03768        32.06542        -0.47618
C          9.84887        31.32985        -0.55092
C         11.06237        33.48715        -0.64857
C          9.84636        34.18659        -0.87016
C         11.05223        36.32676        -0.68553
C          9.87526        35.61230        -0.97778
C         11.02337        37.77966        -0.54115
C          9.84488        38.49065        -0.75437
C         13.57489         3.47637        -0.59869
C         12.30504         4.15749        -0.57218
C         13.52692         6.32221        -0.34263
C         12.31658         5.61911        -0.45245
C         13.51718         7.72743        -0.13529
C         12.28469         8.43147        -0.04056
C         13.50705        10.59051        -0.05909
C         12.26821         9.87280         0.05202
C         13.53146        12.02050        -0.23831
C         12.27786        12.68971        -0.23639
C         13.92207        15.03504        -0.53998
C         12.10546        14.00557        -0.68374
C         13.67418        16.38402        -0.10680
C         12.36650        17.01853        -0.16021
C         13.54110        19.18437         0.20203
C         12.34507        18.41925         0.02867
C         13.56622        20.58214         0.06573
C         12.32075        21.29775        -0.17810
C         13.60567        23.40099        -0.49199
C         12.31581        22.69277        -0.37885
C         13.59409        24.89753        -0.49886
C         12.31137        25.61669        -0.33062
C         13.58709        27.76180        -0.35225
C         12.34742        26.99945        -0.22675
C         13.56914        29.14332        -0.39566
C         12.32691        29.89106        -0.11342
C         13.59017        32.07859        -0.45586
C         12.31188        31.38319        -0.19124
C         13.55411        33.52225        -0.46526
C         12.30431        34.20290        -0.54181
C         13.49971        36.35349        -0.31167
C         12.28684        35.63152        -0.50469
C         13.47062        37.79147        -0.17071
C         12.22643        38.46127        -0.22137
C         16.04348         3.46710        -0.54252
C         14.78098         4.14583        -0.57756
C         16.04883         6.27448        -0.12208
C         14.82073         5.64829        -0.73549
C         15.98054         7.69136         0.40332
C         14.74532         8.45488        -0.01629
C         15.99527        10.58554        -0.21505
C         14.72466         9.84492        -0.05639
C         15.99675        12.04021        -0.00428
C         14.81302        12.74494        -0.16317
C         15.98176        14.83988         0.78391
C         14.86852        14.19591        -0.00760
C         16.03049        16.33421         0.57248
C         14.81674        17.04138         0.38955
C         16.06665        19.19511         0.50766
C         14.75847        18.49183         0.74886
C         16.05665        20.61374         0.34984
C         14.81910        21.30739         0.13319
C         16.07870        23.41808        -0.06539
C         14.86438        22.70252        -0.12452
C         16.12244        24.89197        -0.42778
C         14.83580        25.59671         0.01874
C         16.05524        27.76177        -0.22785
C         14.85496        27.06604        -0.32091
C         16.07844        29.19984        -0.37413
C         14.80693        29.88558        -0.83814
C         16.02727        32.11577        -0.69340
C         14.76312        31.37626        -0.56174
C         16.02567        33.56260        -0.42056
C         14.77158        34.24501        -0.39143
C         15.96633        36.37928        -0.09693
C         14.74207        35.66940        -0.26475
C         15.93010        37.81332         0.04592
C         14.68193        38.48681         0.01329
C         18.49856         3.45219        -0.31497
C         17.22659         4.14764        -0.32062
C         18.41281         6.23969         0.67341
C         17.21013         5.57275        -0.00858
C         18.47548         7.71510         0.24454
C         17.28503         8.40110         0.15014
C         18.55384        10.57763         0.06319
C         17.29425         9.83694        -0.14922
C         18.54163        11.96733         0.22689
C         17.24512        12.64743         0.61020
C         18.48925        14.84532         0.53669
C         17.29414        14.14901         0.53884
C         18.49450        16.30321         0.62846
C         17.26550        17.02231         0.64680
C         18.51723        19.18460         0.57518
C         17.26704        18.47940         0.57274
C         18.51932        20.61165         0.52782
C         17.28738        21.32552         0.36749
C         18.52151        23.48474         0.38714
C         17.29544        22.74931         0.21640
C         18.51524        24.92388         0.40919
C         17.32093        25.63757         0.11659
C         18.45915        27.80802         0.35413
C         17.28998        27.05620         0.09548
C         18.47985        29.21598         0.15786
C         17.26260        29.89634        -0.22994
C         18.52023        32.11241        -0.10820
C         17.32803        31.35072        -0.51358
C         18.48667        33.53221        -0.07665
C         17.23197        34.25014        -0.21955
C         18.41628        36.40126         0.15518
C         17.20254        35.68034        -0.04789
C         18.37697        37.83153         0.26931
C         17.14090        38.51230         0.21457
C         19.65796         4.06281         0.00267
C         20.80704         6.23618        -0.32590
C         19.78570         5.48678         0.49331
C         20.84021         7.59357        -0.41005
C         19.71222         8.39548        -0.02747
C         20.98105        10.57285         0.00310
C         19.76651         9.83374        -0.00565
C         20.97202        11.95039         0.10760
C         19.76315        12.68920         0.26237
C         20.93796        14.87481         0.48193
C         19.75354        14.13017         0.42870
C         20.93168        16.26806         0.58123
C         19.73412        17.00555         0.63248
C         20.94283        19.20001         0.72651
C         19.74397        18.46584         0.65667
C         20.94442        20.59151         0.72240
C         19.74911        21.32650         0.62194
C         20.89587        23.52123         0.93637
C         19.73570        22.78377         0.63745
C         20.86934        24.91593         1.01742
C         19.70331        25.63310         0.75171
C         20.93416        27.85717         0.59801
C         19.66481        27.13233         0.96149
C         20.92445        29.19431         0.37085
C         19.69587        29.94664         0.26363
C         20.87671        32.14083         0.48507
C         19.70514        31.39329         0.20552
C         20.86443        33.52501         0.46702
C         19.68284        34.25578         0.20644
C         20.83793        36.46586         0.42618
C         19.66523        35.71245         0.25666
C         20.79799        37.86784         0.51151
C         19.59452        38.54680         0.44498
O         16.83535        31.70408        -1.86746
O         13.72114        24.18131        -1.76914
O          8.00408        20.84310        -1.88032
O          7.86470        35.82677        -2.44707
O         13.07525        14.53418        -1.53966
O         10.39324        27.36382         1.21505
O         18.10380         6.24463         2.05847
O         12.37678        30.71164         1.13132
O         16.68914        10.18029        -1.47013
O          5.31449         6.08261        -1.86264
O          9.71423         5.72764        -2.18706
H         10.48450         5.26405        -2.57749
O         14.81876        29.79920        -2.30895
H         15.59262        30.34016        -2.60381
O         10.96484        19.23013         1.75433
H         11.87300        19.39283         2.09465
O          1.01098        14.63954        -1.80412
H          1.23598        13.70067        -1.99112
O          1.26734        20.84745        -1.70038
H          0.52286        20.38437        -2.13708
O          8.59846        38.28184        -2.77623
H          8.12463        37.56481        -3.25889
O          2.75019        12.73752         1.96851
H          2.01599        13.17557         2.44699
O          8.52482        15.04027        -1.87169
H          8.46278        14.16011        -2.29729
O          8.52039        16.07814         1.62036
H          8.71294        16.94506         2.03649
O          8.69015        29.05856        -2.30462
H          7.81588        28.75534        -2.63187
O          8.59485         5.94250         1.32454
H          9.13480         6.62342         1.79549
O          3.95301        27.76714         2.03412
H          3.18500        28.23592         2.42543
O         20.40348         5.41840         1.80149
H         19.66093         5.70133         2.41838
O          8.53619        12.05289         2.04092
H          7.70750        11.61714         2.33614
O         15.66280        14.64171         2.22962
H         16.33860        15.13692         2.74089
O          8.78488         8.00383        -1.78545
H          8.20597         7.39706        -2.29423
O          3.28088        33.48712        -1.97334
H          3.99155        32.96669        -2.41979
O         14.94129         5.88341        -2.18791
H         14.20681         5.40177        -2.62420
O         11.33450        12.15782         1.89929
H         10.44675        12.11658         2.33081
O          3.43546        16.13261        -2.13437
H          2.57773        15.66722        -2.30574
O         17.08467        12.31755         2.04292
H         16.37303        12.91785         2.38502
O         19.51647        27.29925         2.42696
H         19.46829        28.26341         2.60229
O          3.20675        12.09733        -1.60027
H          3.92044        11.65337        -2.10538
O         15.85212         7.59887         1.85592
H         16.66088         7.07020         2.16581
O         16.25108        24.98949        -1.86905
H         15.42424        24.60784        -2.25846
O          9.68841         8.25509         1.76414
H         10.49764         8.64749         2.15715
O         14.55253        18.54732         2.22226
H         15.26740        18.01315         2.63083
O          5.83628        31.94236        -2.41013
H          6.60759        32.36916        -2.84310
O         14.78993        25.49499         1.47123
H         14.06482        26.06915         1.79764
O          2.28967        21.00915         1.80569
H          3.05407        21.43673         2.24512
H          1.29343         2.28014         0.41142
H         -0.82051         3.48551         0.92272
H         -0.91254         5.94571         0.93515
H         -0.99663         7.87488         0.63618
H         -1.04539        10.29375         0.56137
H         -1.04032        12.26342         0.78012
H         -1.08043        14.60980         0.27822
H         -1.04828        16.52478         0.18475
H         -1.02788        18.96465         0.18946
H         -1.04885        20.87829         0.27292
H         -0.92846        23.25215         0.72629
H         -0.95069        25.13222         0.29784
H         -0.93171        27.56452         0.37743
H         -0.87737        29.45245         0.81136
H         -0.85189        31.88825         0.82594
H         -0.68246        33.75091         1.36432
H         -0.56091        36.19620         1.63726
H          0.69954        38.30520         1.49731
H          3.68263         2.31055        -0.07520
H          2.79165        39.53444         0.97684
H          6.12509         2.34158        -0.55520
H          5.14441        39.52257         0.28871
H          8.58716         2.33974        -0.49835
H          7.43249        39.56705        -0.52953
H         11.14335         2.34780        -0.52713
H          9.85186        39.58386        -0.62823
H         13.56990         2.37501        -0.58483
H         12.20046        39.55446        -0.09966
H         16.05968         2.37090        -0.64688
H         14.66311        39.58144         0.12323
H         18.49774         2.38690        -0.59535
H         17.12493        39.60778         0.31463
H         20.59316         3.48024        -0.01286
H         21.65574         5.65624        -0.72357
H         21.71038         8.08961        -0.86652
H         21.94284        10.04383        -0.05112
H         21.93628        12.47649         0.11063
H         21.91127        14.36836         0.43352
H         21.89963        16.78575         0.59548
H         21.90812        18.68149         0.79621
H         21.91030        21.11036         0.78321
H         21.83952        23.00442         1.15552
H         21.78849        25.44177         1.30969
H         21.89472        27.32472         0.64148
H         21.87885        29.71372         0.20303
H         21.81443        31.62386         0.72836
H         21.79849        34.05595         0.69402
H         21.81479        35.96835         0.48928
H         21.73669        38.42469         0.64027
H         19.56645        39.64286         0.52472
