         424
 CSIRO Nanostructure Databank - Neutral Graphene Oxide Data Set
C          1.40237         2.06437         1.49244
C          1.39800         3.49692         1.38414
C          2.51662         1.33735         1.18451
C          2.45232         4.18758         0.84623
C          1.31049         6.40791         0.96332
C          1.32473         7.79021         0.84282
C          2.46757         5.64014         0.72294
C          2.48867         8.47721         0.43914
C          1.43219        10.73183         0.79593
C          1.48485        12.12480         0.75570
C          2.51803         9.94208         0.36700
C          2.60597        12.79921         0.25587
C          1.34234        15.00678        -0.04019
C          1.31787        16.27158        -0.51202
C          2.66318        14.32135         0.26067
C          2.54050        17.00336        -0.82162
C          2.52998        18.41809        -0.93320
C          3.71387         1.99549         0.72609
C          3.60445         3.42290         0.23453
C          4.90631         1.32556         0.64723
C          4.91636         4.17569         0.28962
C          3.65809         6.31517         0.33297
C          3.65136         7.71735         0.16009
C          4.91003         5.57944         0.18918
C          4.86489         8.37282        -0.38057
C          3.67835        10.61280        -0.08210
C          3.71902        12.01941        -0.14711
C          4.87349         9.88007        -0.53821
C          4.89081        12.64721        -0.74512
C          3.70419        14.84962        -0.70678
C          3.74481        16.28406        -0.98422
C          4.61868        13.97865        -1.23141
C          4.97532        17.00381        -1.17220
C          3.71170        19.12163        -1.03495
C          4.96502        18.43791        -1.07131
C          6.15184         2.01195         0.39186
C          6.13659         3.45769         0.27792
C          7.35098         1.32117         0.35496
C          7.36991         4.15905         0.20949
C          6.14172         6.29067         0.02886
C          6.16264         7.69657        -0.24050
C          7.36981         5.57817         0.07303
C          7.36492         8.41360        -0.40803
C          6.17548        10.58696        -0.62359
C          6.13226        12.01489        -0.85482
C          7.35665         9.84220        -0.65536
C          7.42302        12.69958        -1.38576
C          6.43039        14.99803        -1.58255
C          6.25919        16.36635        -1.22996
C          7.49096        14.20627        -1.18105
C          7.44544        17.06034        -0.89256
C          6.17853        19.15359        -0.94950
C          7.41360        18.49305        -0.78467
C          8.60832         2.00306         0.27534
C          8.60872         3.44316         0.24859
C          9.82133         1.30725         0.24112
C          9.82836         4.15149         0.28137
C          8.60168         6.29874         0.01031
C          8.61921         7.70984        -0.20664
C          9.82291         5.59443         0.20405
C          9.85965         8.39240        -0.16535
C          8.64966        10.54530        -0.87712
C          8.67372        12.02502        -0.84796
C          9.93092         9.81414        -0.55635
C          9.84866        12.71256        -0.56356
C          8.66999        14.88961        -0.75500
C          8.65434        16.32726        -0.70515
C          9.86943        14.16995        -0.51961
C          9.85538        17.03780        -0.44588
C          8.63514        19.17925        -0.55977
C          9.83643        18.47655        -0.41088
C         11.06389         1.99833         0.24375
C         11.06253         3.43406         0.32357
C         12.29960         1.32645         0.17473
C         12.29111         4.12865         0.44966
C         11.02361         6.31732         0.34534
C         11.05788         7.71812         0.16397
C         12.24407         5.57878         0.70470
C         12.31809         8.45359         0.29863
C         11.13638        10.59269        -0.19744
C         11.09549        12.01223        -0.26282
C         12.31197         9.90727         0.16641
C         12.29721        12.74609        -0.04258
C         11.07313        14.88537        -0.26850
C         11.07026        16.32373        -0.24987
C         12.29876        14.18376        -0.06781
C         12.28212        17.04509        -0.05553
C         11.08214        19.16666        -0.25902
C         12.26475        18.48187        -0.11070
C         13.52791         2.03203         0.17728
C         13.52695         3.46735         0.36919
C         14.74491         1.35697        -0.03115
C         14.77658         4.19266         0.42158
C         13.52849         6.33648         0.79342
C         13.49854         7.79365         0.56809
C         14.80243         5.61200         0.61909
C         14.74126         8.51671         1.00870
C         13.53707        10.63143         0.32866
C         13.52535        12.05255         0.18776
C         14.76554         9.95557         0.57913
C         14.75385        12.77320         0.30503
C         13.51108        14.90808         0.13013
C         13.50542        16.33904         0.15260
C         14.74747        14.20728         0.29212
C         14.71918        17.04915         0.41953
C         13.56949        19.23487        -0.13208
C         14.65694        18.54224         0.69598
C         15.97477         2.06546        -0.13554
C         15.98614         3.49456         0.14168
C         17.15607         1.40888        -0.46211
C         17.23007         4.17972         0.18311
C         16.01250         6.34012         0.69296
C         16.04037         7.75578         0.78052
C         17.25451         5.49551         0.92290
C         17.25142         8.50600         0.80433
C         15.98943        10.64104         0.55428
C         15.98244        12.07031         0.41917
C         17.24158         9.91596         0.66248
C         17.21305        12.79843         0.42310
C         15.96037        14.92911         0.45400
C         15.91738        16.35895         0.56295
C         17.20757        14.21864         0.47435
C         17.16578        17.11001         0.84627
C         15.97438        19.23799         0.49732
C         17.17887        18.57582         0.59457
C         18.39076         2.17389        -0.81644
C         18.42089         3.55562        -0.19354
C         19.67628         1.42752        -0.56845
C         19.66199         4.25378        -0.17565
C         18.56150         6.28321         0.79165
C         18.55904         7.78376         0.89960
C         19.74495         5.60125         0.19014
C         19.87893         8.54211         0.67655
C         18.47263        10.65545         0.46185
C         18.44926        12.08565         0.35788
C         19.70232         9.99314         0.29943
C         19.67105        12.80904         0.23655
C         18.45903        14.91484         0.53504
C         18.47312        16.37312         0.80499
C         19.65931        14.23528         0.37550
C         19.70544        17.13464         0.50669
C         18.42184        19.24871         0.45550
C         19.66475        18.56451         0.39265
C         20.86665         2.08982        -0.58085
C         20.85019         3.58331        -0.84213
C         22.13873         1.41276        -0.49126
C         22.15115         4.26303        -0.50954
C         20.92622         6.35460        -0.11863
C         20.79475         7.84420        -0.33834
C         22.12589         5.70089        -0.40661
C         22.11462         8.58599        -0.42180
C         20.88390        10.69840        -0.04370
C         20.89041        12.11055        -0.00223
C         22.09876         9.96113        -0.36197
C         22.13867        12.84634        -0.15072
C         20.96465        14.96219         0.61029
C         20.90413        16.44614         0.30649
C         22.15913        14.25746         0.01656
C         22.07874        17.16287        -0.00422
C         20.87715        19.27092         0.19239
C         22.09680        18.59121         0.00266
C         23.33231         2.10552        -0.53914
C         23.32779         3.55501        -0.50787
C         24.61894         1.42327        -0.60031
C         24.64517         4.25303        -0.30020
C         23.37097         6.43760        -0.55734
C         23.35371         7.85818        -0.60185
C         24.59386         5.73401        -0.59981
C         24.59083         8.55910        -0.66673
C         23.30491        10.72391        -0.85076
C         23.33350        12.17054        -0.44362
C         24.60804        10.00287        -0.61921
C         24.56686        12.87407        -0.45545
C         23.33355        14.96899        -0.23219
C         23.28964        16.43407        -0.38172
C         24.57391        14.29381        -0.39891
C         24.59979        17.19710        -0.47857
C         23.35271        19.29410        -0.05772
C         24.57884        18.64088        -0.16200
C         25.77939         2.08107        -0.84896
C         25.77481         3.57734        -1.08847
C         27.06374         1.33007        -1.10893
C         27.08652         4.25924        -0.75178
C         25.82016         6.42197        -0.74184
C         25.80431         7.83780        -0.76852
C         27.08173         5.67793        -0.69747
C         27.06126         8.59324        -0.86795
C         25.79636        10.70730        -0.48155
C         25.81039        12.16071        -0.40828
C         27.06365        10.01553        -0.50506
C         27.00644        12.85636        -0.21735
C         25.82486        15.00777        -0.38866
C         25.85240        16.43698        -0.34317
C         27.03726        14.28022        -0.25974
C         27.05730        17.13920        -0.20239
C         25.83474        19.28914        -0.00509
C         27.04670        18.58269        -0.05997
C         28.31396         2.09115        -0.71102
C         28.28273         3.53775        -0.58842
C         29.48801         1.40873        -0.55112
C         29.50353         4.23028        -0.29011
C         28.30615         6.36057        -0.52777
C         28.36882         7.82074        -0.69572
C         29.50450         5.65581        -0.27042
C         29.53573         8.55298        -0.19795
C         28.25614        10.66760        -0.22048
C         28.21758        12.10003         0.26207
C         29.47983         9.93879        -0.06015
C         29.52733        12.83983         0.08651
C         28.30087        14.98231        -0.20712
C         28.30807        16.42924        -0.23502
C         29.50317        14.27007        -0.06663
C         29.51157        17.15721        -0.23281
C         28.29713        19.25228         0.10438
C         29.50361        18.56905         0.02155
C         30.73203         2.06997        -0.21541
C         30.72185         3.51739        -0.07709
C         31.89996         1.35775        -0.06858
C         31.93548         4.21334         0.15805
C         30.73345         6.37572        -0.05085
C         30.74491         7.80050         0.03550
C         31.94186         5.66049         0.14995
C         31.97243         8.48190         0.18506
C         30.68168        10.67916         0.38276
C         30.70805        12.14980         0.23760
C         31.98534         9.93413         0.44131
C         31.98261        12.85394         0.64176
C         30.78746        14.95698        -0.26571
C         30.79026        16.46676        -0.45798
C         32.04701        14.28293         0.14376
C         32.11771        17.23334        -0.37480
C         30.76874        19.24653         0.27254
C         31.97374        18.63787         0.17003
C         33.14929         2.00236         0.45074
C         33.16864         3.50159         0.27669
C         34.41747         1.35244        -0.00702
C         34.39857         4.17776         0.34050
C         33.16451         6.37075         0.26216
C         33.18600         7.76749         0.19335
C         34.40335         5.63853         0.70068
C         34.47453         8.49372        -0.09761
C         33.26558        10.67561         0.33234
C         33.26470        12.08351         0.40658
C         34.47648         9.96507         0.23876
C         34.48504        12.78513         0.38105
C         33.19744        14.97924         0.28865
C         33.17085        16.48670         0.47398
C         34.49315        14.28064         0.65497
C         34.50582        17.17300         0.31741
C         33.22429        19.34528         0.65678
C         34.51664        18.59920         0.39519
C         35.61339         2.05791        -0.04195
C         35.62770         3.48763         0.21924
C         36.85358         1.40553        -0.31285
C         36.87195         4.19654         0.27214
C         35.69812         6.36431         0.43329
C         35.71990         7.76101         0.32753
C         36.89379         5.60830         0.44399
C         36.96541         8.48945         0.29533
C         35.70455        10.66323         0.20617
C         35.69653        12.07831         0.24933
C         36.97429         9.92846         0.20533
C         36.97442        12.79143        -0.13664
C         35.64707        14.97694        -0.09446
C         35.68908        16.45697         0.19686
C         36.96333        14.27252         0.14150
C         36.93827        17.14370         0.20881
C         35.71792        19.28021         0.31330
C         36.95745        18.57627         0.22542
C         38.07078         2.09800        -0.27601
C         38.10007         3.49628         0.03023
C         39.30635         1.41763        -0.56901
C         39.35097         4.20220        -0.00465
C         38.18435         6.31405         0.74455
C         38.17880         7.78360         0.40061
C         39.41380         5.59612         0.26200
C         39.42034         8.47077         0.40517
C         38.19402        10.61932         0.30531
C         38.22772        12.08018         0.31492
C         39.42783         9.89960         0.42896
C         39.37157        12.76962         0.57170
C         38.11975        14.96168         0.32037
C         38.15789        16.41490         0.23645
C         39.40181        14.27546         0.72269
C         39.39148        17.08544         0.11790
C         38.19698        19.24159         0.14410
C         39.40395        18.52076         0.03791
C         40.49331         2.09259        -0.60324
C         40.54746         3.50277        -0.33848
C         41.76755         4.21478        -0.40085
C         40.63222         6.28981         0.19334
C         40.65651         7.74211         0.41687
C         41.80871         5.57582        -0.15220
C         41.84483         8.45132         0.58072
C         40.66125        10.58556         0.61320
C         40.69336        12.08131         0.84261
C         41.83928         9.85096         0.71998
C         41.77813        12.76475         0.04483
C         40.61291        14.92245         0.08095
C         40.62770        16.34209        -0.03460
C         41.72848        14.09845        -0.24732
C         41.81491        17.06682        -0.28917
C         40.64528        19.19173        -0.16263
C         41.81619        18.46724        -0.33557
O         23.83532        16.85880        -1.68670
O         31.23604        10.25592         1.70007
O         17.83828        16.72376         2.09854
O         12.80051         5.94810         2.03595
O          4.63371         8.99790        -1.69367
O          9.48770         9.99087        -1.95595
O          5.39872        14.39937        -2.32492
O         30.81681        15.57324        -1.62057
O         27.90042         8.26232        -2.02168
O         18.75807         6.95233         2.10400
O          3.03015        14.70185         1.62406
H          3.05519        15.68173         1.65424
O         20.60601         8.59902         1.92716
H         20.21702         7.91240         2.52026
O         32.79015        16.66044         1.87749
H         33.42281        16.11285         2.40064
O         20.13567         7.97921        -1.63277
H         20.73582         7.61764        -2.31902
O         38.27482         6.27933         2.22991
H         37.39278         6.53407         2.57839
O         25.50422         3.80729        -2.49527
H         26.27255         3.49493        -3.01590
O          7.41728        12.45059        -2.82050
H          6.63130        12.91695        -3.18470
O         36.99653        12.68443        -1.60598
H         36.26765        13.27041        -1.93110
O         32.65094        17.35697        -1.71170
H         32.25238        16.62586        -2.24164
O         21.18733        14.88675         2.06461
H         20.40105        15.27861         2.50309
O         20.67936         3.77803        -2.28042
H         19.87003         3.26750        -2.54476
O         41.03509        12.27361         2.26748
H         40.47155        11.66201         2.78792
O         33.09784        19.50508         2.08647
H         32.95793        18.59933         2.45089
O         14.00775        19.34725        -1.49888
H         14.00651        18.45170        -1.89549
O         35.30194        14.83590        -1.51669
H         35.76627        15.54475        -2.01068
O         14.61637         8.56367         2.48493
H         14.30276         7.67936         2.77920
O         33.09600         1.79061         1.94062
H         32.18540         2.02339         2.22401
O         25.00240         4.11527         1.10866
H         24.29024         4.52651         1.64188
O          3.27643         3.31702        -1.19861
H          4.00687         2.82330        -1.62849
O         31.90237        12.97649         2.11440
H         31.71011        12.06134         2.43918
O         14.27297        18.70342         2.09449
H         14.96372        18.27632         2.64430
O         34.32213         5.64776         2.18441
H         33.68070         4.95215         2.44624
O         18.31775         2.37919        -2.29673
H         17.45247         2.80220        -2.48583
O         34.53868         8.47302        -1.57912
H         35.35153         8.95608        -1.84329
O         23.14227        10.74217        -2.32555
H         23.90597        11.23357        -2.69737
O         34.68291        14.45733         2.08465
H         33.98717        13.91767         2.52575
O         17.14448         5.06954         2.31772
H         17.48156         5.81739         2.86460
O         39.54173        14.54255         2.15844
H         40.27573        13.95801         2.47626
O         28.04203        12.01949         1.72334
H         28.82855        11.55938         2.08897
O         27.04296         0.03516        -0.50554
H         26.99943         0.15215         0.46537
H          0.50652         1.56491         1.88702
H          0.52117         4.03136         1.77676
H          2.54456         0.25142         1.35900
H          0.37112         5.91394         1.24573
H          0.39868         8.34320         1.04762
H          0.52143        10.25749         1.18453
H          0.62023        12.69392         1.12413
H          0.40042        14.50916         0.23325
H          0.35863        16.79812        -0.63503
H          1.57156        18.95293        -0.86406
H          4.94693         0.25219         0.89066
H          3.70468        20.22111        -1.03228
H          7.34777         0.22353         0.43216
H          6.14594        20.25252        -0.90272
H          9.81797         0.20728         0.22421
H          8.63923        20.27822        -0.51302
H         12.31449         0.23019         0.08306
H         11.08708        20.26633        -0.29450
H         14.73981         0.26859        -0.19064
H         13.42436        20.27475         0.24964
H         17.13843         0.32578        -0.65542
H         15.96377        20.32524         0.32716
H         19.64245         0.33265        -0.45667
H         18.41261        20.34087         0.32269
H         22.14402         0.31360        -0.42843
H         20.85945        20.37065         0.17520
H         24.63053         0.32550        -0.50725
H         23.34004        20.38430         0.09310
H         27.12203         1.15601        -2.22391
H         25.85642        20.37506         0.17190
H         29.49214         0.31395        -0.66333
H         28.29961        20.33733         0.28564
H         31.89049         0.26381        -0.19104
H         30.71849        20.28423         0.63797
H         34.41846         0.26740        -0.19116
H         33.28429        20.37468         0.21897
H         36.85182         0.32787        -0.53572
H         35.73006        20.38009         0.34198
H         39.27215         0.33932        -0.78255
H         38.22213        20.34138         0.13092
H         41.42814         1.56439        -0.84133
H         42.69029         3.67564        -0.65997
H         42.76874         6.10469        -0.22781
H         42.80652         7.92268         0.63013
H         42.78959        10.37040         0.90757
H         42.65529        12.17612        -0.26129
H         42.58012        14.54867        -0.78043
H         42.76627        16.53215        -0.41596
H         40.66061        20.29020        -0.20508
H         42.76397        18.99679        -0.50766
