         470
 CSIRO Nanostructure Databank - Neutral Graphene Oxide Data Set
C         37.69906        50.75208        -2.17650
C         36.63199        51.62799        -2.36223
C         37.71473        53.23764        -0.92358
C         36.64205        52.87588        -1.73239
C         40.05771        48.95000        -1.96861
C         39.91445        50.15747        -1.14020
C         38.78449        51.09864        -1.35364
C         39.95512        52.78569         0.09295
C         38.80101        52.36251        -0.71447
C         39.85742        53.90043         0.94686
C         42.46126        48.79751        -1.45751
C         41.22566        48.26723        -2.00118
C         42.47987        50.05879        -0.81217
C         41.19529        50.71125        -0.52199
C         42.34905        52.56597         0.66642
C         41.19102        52.09015         0.01079
C         42.15793        53.59923         1.60077
C         40.93197        54.26125         1.74902
C         44.89371        45.97815        -1.99732
C         43.72778        46.69263        -1.92774
C         44.92324        48.87275        -1.62076
C         43.67731        48.09781        -1.68382
C         44.89660        50.20489        -0.97763
C         43.71430        50.73178        -0.48689
C         44.87120        52.89924         0.27297
C         43.71911        51.89381         0.52944
C         45.07908        54.16153         1.05248
C         44.19881        54.67443         2.02610
C         45.35511        56.79723         2.11419
C         44.35233        55.94713         2.58642
C         47.43592        44.40122        -1.21433
C         47.46349        45.83381        -1.57329
C         46.21729        46.61534        -1.91256
C         47.41271        48.70022        -0.98398
C         46.23502        48.11131        -1.71322
C         47.38123        50.15692        -0.62944
C         46.18760        50.99001        -1.06949
C         47.42082        53.02491        -0.13711
C         46.12603        52.35878        -0.40134
C         47.42218        54.36724         0.21275
C         46.20726        54.97717         0.73247
C         47.38205        57.18690         0.60546
C         46.28108        56.32131         1.18811
C         47.46183        58.58067         1.15988
C         49.87503        44.34399        -0.81501
C         48.56463        43.73725        -0.85041
C         49.97713        45.79481        -1.24418
C         48.69232        46.57686        -1.16974
C         49.95535        48.67957        -0.82207
C         48.68881        47.92609        -1.00313
C         49.91344        50.14543        -0.51303
C         48.64244        50.89598        -0.40987
C         49.91438        52.95104         0.11180
C         48.65630        52.25993        -0.18174
C         49.90929        54.34770         0.37384
C         48.68208        55.08109         0.39853
C         49.92538        57.14316         0.92934
C         48.69884        56.45028         0.68198
C         49.92069        58.55549         1.22161
C         48.64237        59.21198         1.37116
C         52.17160        41.44438        -0.22111
C         51.04506        42.14577        -0.49363
C         52.33089        44.25250        -0.52450
C         51.03360        43.59893        -0.58818
C         52.34303        45.73022        -0.36673
C         51.14408        46.52335        -0.65366
C         52.41327        48.59608        -0.21883
C         51.17881        47.89172        -0.51346
C         52.38837        50.01230         0.20592
C         51.09668        50.77330         0.14413
C         52.34176        52.87752         0.59885
C         51.12385        52.24175         0.22344
C         52.31871        54.25424         0.88043
C         51.12687        55.00510         0.72628
C         52.40612        57.10541         1.13892
C         51.14109        56.42082         0.94535
C         52.40131        58.56213         1.24280
C         51.15008        59.25693         1.35780
C         52.40266        61.34218         1.62621
C         51.20693        60.66867         1.57640
C         54.79562        39.89568         0.50972
C         54.69758        41.37833         0.53557
C         53.44289        42.12784         0.10972
C         54.81411        44.22454        -0.57873
C         53.50435        43.55768        -0.30999
C         54.88906        45.75100        -0.69643
C         53.64929        46.47838        -0.29862
C         54.87913        48.65648        -0.05339
C         53.63388        47.95230        -0.26937
C         54.90035        50.05977         0.17923
C         53.64752        50.78129         0.29257
C         54.83670        52.88084         0.81461
C         53.60486        52.14206         0.58575
C         54.78814        54.19012         1.23113
C         53.50436        54.90649         1.52752
C         54.86423        57.11787         1.64569
C         53.58054        56.39062         1.27917
C         54.87938        58.48960         0.95256
C         53.61660        59.26020         1.27879
C         54.90112        61.38455         1.41550
C         53.65169        60.67115         1.44397
C         54.94650        62.79850         1.46366
C         57.25320        39.94501         0.89692
C         55.95845        39.24418         0.70057
C         57.30075        41.36843         0.52077
C         56.01989        42.10565         0.48871
C         57.37101        43.85835        -0.67600
C         56.05450        43.47370        -0.18023
C         57.35720        45.99615        -0.86994
C         56.13623        46.55163        -0.55812
C         57.32407        48.63240         0.04968
C         56.10486        47.94236        -0.13618
C         57.34207        50.00211         0.40760
C         56.13491        50.72272         0.41193
C         57.30705        52.75667         1.31328
C         56.17596        52.23485         0.44874
C         57.13240        54.01382         1.80428
C         56.02453        54.90479         1.49630
C         57.43291        57.01377         1.30172
C         56.13592        56.28114         1.49657
C         57.39490        58.52025         1.07715
C         56.14260        59.27333         1.22305
C         57.40878        61.41304         1.23322
C         56.15387        60.66182         1.31415
C         57.38567        62.83629         1.23551
C         56.13423        63.49851         1.37756
C         59.82244        37.08162         1.08681
C         58.65742        37.73033         0.92664
C         59.80527        39.96272         0.56889
C         58.58727        39.21497         0.95979
C         59.79561        41.33454         0.37299
C         58.51487        42.04294         0.38776
C         59.77500        44.25225         0.11954
C         58.54154        43.39686        -0.13101
C         59.78743        45.72898        -0.32481
C         58.63354        46.50024        -0.46575
C         59.89902        48.63804        -0.00384
C         58.60688        47.96536        -0.28883
C         59.91100        49.99548         0.55902
C         58.59665        50.52469         1.11029
C         59.94371        52.79941         1.46329
C         58.59711        52.02516         1.45065
C         59.99694        54.28381         1.43905
C         58.98912        55.08763         1.92162
C         59.93155        57.11956         0.98909
C         58.81060        56.44945         1.48280
C         59.85356        58.56404         0.54994
C         58.71400        59.24779         1.32427
C         59.85265        61.43848         0.88405
C         58.64942        60.73799         1.08097
C         59.84564        62.87871         0.89770
C         58.61856        63.57651         1.09442
C         59.83767        65.69685         0.96157
C         58.65837        64.99674         1.12175
C         62.49866        35.70817         1.48539
C         62.43372        37.16756         1.33447
C         61.09396        37.84564         1.18295
C         62.32849        39.85216         0.12574
C         61.05396        39.16673         0.46631
C         62.25846        41.31085        -0.24900
C         61.01285        42.08084         0.01116
C         62.29292        44.20984        -0.24728
C         61.04839        43.46283        -0.12378
C         62.26193        45.63034        -0.19089
C         61.05996        46.40529        -0.16714
C         62.32706        48.56395         0.07631
C         61.12227        47.82656         0.00910
C         62.35343        49.96473         0.25738
C         61.11831        50.64370         0.62801
C         62.37131        52.85305         0.44446
C         61.10919        52.12165         0.77705
C         62.50873        54.28038         0.84094
C         61.25047        55.01156         1.16607
C         62.37632        57.14153         0.58249
C         61.19571        56.45652         0.91800
C         62.36292        58.58606         0.54497
C         61.16465        59.29060         0.72740
C         62.31182        61.43243         0.62207
C         61.11934        60.72226         0.74704
C         62.28052        62.87609         0.39467
C         61.05085        63.61895         0.70956
C         62.34064        65.76598         0.67075
C         61.07244        65.02921         0.74006
C         62.37394        67.21129         0.60207
C         64.91235        35.73313         1.05521
C         63.66516        35.04557         1.32138
C         64.87343        37.17349         0.84332
C         63.67330        37.85800         0.91272
C         64.86208        39.98657         0.20570
C         63.61504        39.36269         0.79460
C         64.84529        41.32667        -0.16813
C         63.56103        42.04458        -0.39968
C         64.78470        44.17322        -0.51457
C         63.54851        43.51910        -0.34395
C         64.83086        45.64036        -0.36225
C         63.54074        46.36832        -0.12311
C         64.83295        48.55694        -0.09358
C         63.53957        47.85760        -0.45741
C         64.82651        50.02814        -0.13207
C         63.59573        50.70407         0.08444
C         64.81789        52.85014        -0.04551
C         63.62735        52.12387         0.15773
C         64.82559        54.31122        -0.01915
C         63.65871        55.03058         0.31629
C         64.79791        57.16840        -0.02221
C         63.61607        56.44394         0.32531
C         64.79935        58.61641         0.07261
C         63.61330        59.27785         0.39450
C         64.90569        61.49148         0.46275
C         63.60120        60.72726         0.64134
C         64.87776        62.94743         0.35425
C         63.59620        63.65103         0.31009
C         64.83387        65.75879         0.82076
C         63.55053        65.08355         0.60102
C         64.83373        67.30272         0.82283
C         63.53462        67.92394         0.54996
C         67.31826        32.93555         1.40781
C         66.17208        33.59401         1.15181
C         67.38697        35.75860         0.99948
C         66.12353        35.04534         1.08115
C         67.37634        37.16050         0.67538
C         66.11985        37.87202         0.54158
C         67.31794        39.94233        -0.16387
C         66.08119        39.23465         0.20455
C         67.32232        41.41499        -0.25372
C         66.07001        42.06978        -0.36359
C         67.27771        44.17753        -0.90916
C         66.01348        43.46851        -0.60764
C         67.28869        45.69854        -1.08046
C         65.96533        46.44950        -1.00328
C         67.33006        48.59464        -0.61485
C         66.10600        47.82279        -0.36266
C         67.29322        50.00081        -0.51959
C         66.04644        50.71913        -0.30782
C         67.25384        52.86522        -0.53703
C         66.03993        52.15083        -0.31268
C         67.25312        54.32626        -0.56231
C         66.00337        55.04253        -0.31989
C         67.15001        57.19546        -0.95535
C         65.96820        56.45683        -0.36121
C         67.18409        58.67636        -0.64342
C         66.03065        59.35649        -0.18197
C         67.23455        61.50668        -0.41052
C         66.08491        60.76819        -0.04199
C         67.28185        62.95440        -0.20927
C         66.09195        63.66343         0.26069
C         67.33600        65.80692         0.51950
C         66.08694        65.05286         0.49687
C         67.32096        67.28274         0.53727
C         66.12653        68.01167         0.57656
C         67.37284        70.13644         0.46979
C         66.16353        69.42855         0.52819
C         69.92589        31.51599         2.05491
C         69.81249        32.84823         1.44410
C         68.57914        33.67492         1.76865
C         69.85007        35.75766         1.03010
C         68.60082        35.07956         1.19086
C         69.85121        37.17404         0.81577
C         68.60589        37.84390         0.61110
C         69.80221        40.08577         0.43911
C         68.62511        39.23463         0.12654
C         69.80636        41.48776        -0.01989
C         68.55326        42.13521        -0.29167
C         69.75987        44.27558        -0.62269
C         68.55767        43.53158        -0.58020
C         69.75985        45.70753        -0.85799
C         68.54468        46.43652        -0.92509
C         69.75350        48.60516        -0.95913
C         68.54446        47.88307        -0.84685
C         69.76963        50.02477        -0.81721
C         68.51629        50.73418        -0.63486
C         69.73803        52.90640        -0.64410
C         68.47062        52.14770        -0.63180
C         69.65413        54.31680        -1.13008
C         68.41246        55.03699        -0.78418
C         69.64875        57.20382        -1.26251
C         68.47491        56.52941        -0.57439
C         69.51401        58.64876        -1.52163
C         68.34711        59.38933        -0.97435
C         69.57705        61.54382        -1.25239
C         68.38642        60.80880        -0.88097
C         69.49242        63.01659        -1.33445
C         68.38488        63.68928        -0.61755
C         69.60787        65.95396        -0.74178
C         68.54819        65.08020        -0.14926
C         69.80374        67.32509        -0.16703
C         68.59887        68.00900         0.46227
C         69.88786        70.15758         0.44771
C         68.59801        69.47632         0.45362
C         70.01452        71.45055         0.99715
C         72.33672        31.51183         1.69674
C         71.11416        30.85796         2.08329
C         72.35621        32.81884         1.32354
C         71.11004        33.56281         1.09372
C         72.28464        35.76414         0.92388
C         71.09728        35.05112         1.04231
C         72.28742        37.16474         0.80805
C         71.09870        37.88084         0.74451
C         72.32059        40.14103         0.39801
C         71.11180        39.36954         0.71278
C         72.25791        41.46337         0.09209
C         71.01449        42.18949        -0.07495
C         72.19486        44.35937        -0.40180
C         71.01039        43.60746        -0.37741
C         72.18882        45.72722        -0.70262
C         71.00030        46.41314        -0.93118
C         72.24571        48.62592        -1.18919
C         70.98113        47.85142        -1.41738
C         72.22730        49.97651        -1.01580
C         71.01226        50.71917        -0.86783
C         72.23968        52.99105        -1.13505
C         71.05393        52.19000        -0.72275
C         72.18295        54.31166        -1.39071
C         70.89859        55.05685        -1.49847
C         72.02749        57.31672        -1.82021
C         70.83408        56.55413        -1.53334
C         72.04287        58.67673        -1.83979
C         70.79582        59.44685        -1.83056
C         71.98614        61.67687        -1.69424
C         70.77185        60.91401        -1.59957
C         72.01492        63.03977        -1.63260
C         70.77732        63.81589        -1.65666
C         72.05282        66.08797        -1.40939
C         70.78564        65.31393        -1.44320
C         72.09169        67.40100        -1.12183
C         70.83934        68.21150        -0.85508
C         72.26590        70.18480        -0.05791
C         71.03829        69.51320        -0.08720
C         72.37844        71.45758         0.50941
C         71.24873        72.09307         1.03109
O         70.24222        32.94824         0.06287
O         43.14624        53.91481         2.53704
O         59.38916        52.21672         2.67297
O         45.13685        53.17198        -1.13495
O         68.13311        39.33614        -1.24480
O         69.74035        67.42759         1.25623
O         47.06554        49.14682         0.38991
O         67.29820        44.80498        -2.25275
O         53.79790        41.91350         1.54789
O         62.24407        54.60347         2.24237
O         50.30543        45.62419        -2.75399
O         70.52342        52.70128         0.57980
O         64.39789        45.98159         0.99379
O         57.37585        57.61575        -0.07687
O         51.51099        50.15666         1.40631
O         69.81660        63.46624        -2.69269
O         54.79831        44.89557        -1.88006
O         40.24470        49.89077         0.26573
O         56.07544        43.32109         1.28627
O         52.99923        46.00553         0.93267
O         64.87955        66.53703         2.06843
O         57.91964        39.68699         2.18646
O         50.18338        49.68209        -1.88877
O         62.82099        41.53458        -1.58555
O         59.29512        48.68083        -1.39232
O         69.69551        65.95185        -2.18668
O         45.75466        48.82663        -2.87045
O         65.62011        48.00636         1.00421
O         62.84525        63.26042        -0.92114
O         68.42461        65.19167         1.28680
O         61.67710        39.01599        -0.87245
O         70.03430        54.46155        -2.55160
O         57.40560        44.84006        -1.65789
O         47.13567        46.14498        -2.99166
O         58.01475        54.53803         2.75552
O         69.86028        59.04121        -2.88322
O         64.44525        61.07634         1.81650
O         61.73568        37.86051         2.49773
O         61.31460        52.70158        -0.57620
O         70.29160        39.93150         1.80675
O         65.57628        46.70509        -2.37206
H         65.93358        45.96656        -2.91864
O         59.61768        58.64322        -0.87629
H         58.78913        58.13796        -1.06531
O         54.82784        58.21797        -0.47885
H         55.03534        59.04807        -0.95549
O         63.54943        39.89334         2.16019
H         62.92988        39.30742         2.66566
O         49.97180        46.83751        -3.43593
H         49.00816        46.72205        -3.65445
O         56.46554        52.65196        -0.92620
H         55.77035        52.28111        -1.50956
O         47.05758        57.33548        -0.81921
H         47.79152        57.83195        -1.23848
O         67.03424        57.06303        -2.39651
H         66.21654        57.51661        -2.68805
O         44.04681        51.28703         1.80304
H         43.30735        50.70115         2.06814
O         46.42489        51.27931        -2.46838
H         45.78573        51.97764        -2.73173
O         63.41899        47.99745        -1.90112
H         62.49900        47.78209        -2.16268
O         53.32222        54.78578         3.00042
H         52.38704        55.01085         3.19649
O         59.73027        44.44619         1.58300
H         59.58864        43.56992         2.00282
O         58.50020        49.82845         2.39863
H         58.97519        50.38673         3.05928
O         70.84746        47.73683        -2.88978
H         70.76087        48.64657        -3.24630
O         59.02956        59.08069         2.73523
H         58.41998        59.64115         3.25945
O         54.78512        57.35507         3.08380
H         54.52190        56.50017         3.49901
O         68.64898        56.75302         0.85730
H         69.35936        56.16176         1.18369
O         70.26181        68.58636        -2.13624
H         70.96593        68.98434        -2.68830
O         68.59262        33.82803         3.22495
H         67.79258        34.33433         3.47986
H         37.67390        49.77376        -2.67494
H         35.78784        51.33658        -3.00180
H         37.71136        54.23317        -0.45997
H         35.80798        53.57544        -1.88057
H         39.19630        48.57255        -2.53652
H         38.90771        54.43980         1.05478
H         41.28252        47.34504        -2.59578
H         40.83463        55.05753         2.49776
H         44.85484        44.89692        -2.18789
H         42.77945        46.14093        -1.99709
H         45.42515        57.82250         2.50182
H         43.64061        56.28679         3.34943
H         46.47885        43.86259        -1.25826
H         46.52575        59.15022         1.25659
H         48.47482        42.67672        -0.57459
H         48.62364        60.26410         1.68942
H         52.12460        40.34841        -0.14252
H         50.11285        41.59335        -0.67767
H         52.38311        62.42661         1.79774
H         50.27789        61.24132         1.69875
H         53.86369        39.31921         0.41346
H         54.01439        63.37222         1.55003
H         55.95091        38.14519         0.74919
H         56.09485        64.59515         1.40359
H         59.83925        35.98366         1.14340
H         57.71754        37.16120         0.88055
H         59.80789        66.79355         1.01094
H         57.73422        65.56769         1.28217
H         61.58813        35.16093         1.76424
H         61.42837        67.74894         0.44539
H         63.67457        33.95647         1.46065
H         63.49585        68.99316         0.29727
H         67.32828        31.83604         1.42546
H         65.26089        33.01803         0.93810
H         67.34258        71.23489         0.44551
H         65.22439        69.99498         0.57334
H         69.03577        31.07258         2.52471
H         69.13186        71.94543         1.42595
H         73.28268        30.96637         1.82427
H         71.17519        29.84843         2.51423
H         73.32231        33.32702         1.19506
H         73.25029        35.24204         0.92339
H         73.25326        37.68531         0.76091
H         73.29582        39.63406         0.38328
H         73.20160        41.98717        -0.11199
H         73.16197        43.88052        -0.20170
H         73.15351        46.24939        -0.75284
H         73.21317        48.12036        -1.31402
H         73.18419        50.51387        -0.94622
H         73.22050        52.49269        -1.15133
H         73.11751        54.84541        -1.61810
H         72.98202        56.77970        -1.90886
H         73.00756        59.20033        -1.89156
H         72.94188        61.13878        -1.75568
H         72.98086        63.55889        -1.55951
H         72.99178        65.55842        -1.62880
H         73.06616        67.91116        -1.13769
H         73.16644        69.71918        -0.48245
H         73.35537        71.95935         0.53272
H         71.33460        73.09546         1.47245
