         671
 CSIRO Nanostructure Databank - Neutral Graphene Oxide Data Set
C          5.84447        31.77208         0.05276
C          5.79823        33.11633         0.28581
C          8.35532        27.47217         0.05260
C          8.34984        28.87858         0.00781
C          7.10870        29.64131        -0.00666
C          8.33546        31.79071        -0.18703
C          7.07637        31.01198        -0.07154
C          8.28382        33.23114         0.21993
C          6.99215        33.92450         0.46942
C          8.24379        36.06240         1.01777
C          6.99361        35.26968         0.69238
C          8.29763        37.48816         0.55443
C         10.87085        23.18404        -0.01347
C         10.82644        24.60334        -0.08802
C          9.60367        25.31689         0.01068
C         10.81811        27.44312         0.02159
C          9.57317        26.73264         0.02051
C         10.81129        28.86614         0.07932
C          9.58616        29.56969         0.02072
C         10.83801        31.70475         0.39526
C          9.66634        31.03980        -0.29430
C         10.79655        33.10871         0.81865
C          9.50483        33.88227         0.77547
C         10.76126        36.02743         0.72552
C          9.53876        35.34127         0.73456
C         10.76253        37.44796         0.66982
C          9.52239        38.17403         0.55298
C         10.78752        40.32449         0.34908
C          9.57224        39.59990         0.42856
C         10.80104        41.73558         0.26282
C         13.37214        18.96111         0.52344
C         13.34950        20.38887         0.41539
C         12.12929        21.08568         0.31041
C         13.34637        23.16296        -0.14253
C         12.10612        22.47764         0.05889
C         13.30885        24.58948        -0.62544
C         12.05542        25.32448        -0.21327
C         13.29171        27.45200        -0.05450
C         12.05412        26.72782        -0.09867
C         13.25459        28.84155         0.17564
C         12.05512        29.57549         0.21826
C         13.25612        31.72331         0.79188
C         12.04809        31.01122         0.47432
C         13.28527        33.14720         0.79245
C         12.04773        33.88968         0.77584
C         13.26021        36.01094         0.49945
C         12.02368        35.27932         0.71137
C         13.24151        37.39343         0.36602
C         12.05795        38.19384         0.84375
C         13.23147        40.29593         0.06385
C         12.04452        39.61840         0.34306
C         13.24604        41.73229        -0.03015
C         12.01717        42.45756         0.15965
C         13.28632        44.56527         0.13674
C         12.05947        43.86897         0.21252
C         13.33936        45.97890         0.21101
C         15.68476        14.68091        -0.04151
C         15.71749        16.08172         0.10933
C         14.53539        16.82309         0.28427
C         15.84484        18.91447         0.50757
C         14.56536        18.22911         0.45656
C         15.89103        20.42288         0.59644
C         14.57507        21.10371         0.30282
C         15.85084        23.16690        -0.26113
C         14.57101        22.47598        -0.02458
C         15.83326        24.62883        -0.35970
C         14.58342        25.33013        -0.32786
C         15.77520        27.45786        -0.18252
C         14.56548        26.74482        -0.16831
C         15.75919        28.91465        -0.04202
C         14.51980        29.51115         0.53648
C         15.81044        31.68044         0.97496
C         14.50659        30.95352         0.91233
C         15.78409        33.19795         0.99026
C         14.50147        33.88268         0.78420
C         15.75177        35.95942         0.39750
C         14.51728        35.27689         0.51023
C         15.77833        37.34294        -0.06782
C         14.42425        38.10833        -0.09996
C         15.69805        40.21387        -0.30026
C         14.49030        39.57433        -0.08010
C         15.72096        41.69088        -0.62905
C         14.46554        42.42994        -0.19852
C         15.76513        44.55532        -0.16510
C         14.50685        43.82772        -0.06062
C         15.77796        45.97113        -0.10849
C         14.55564        46.69313         0.08170
C         15.75446        48.83483        -0.19096
C         14.57155        48.11051         0.13967
C         15.75795        50.25753        -0.25126
C         18.17291        10.31175        -0.33417
C         18.10172        11.70862         0.24142
C         16.86137        12.51754        -0.04853
C         18.16102        14.63645        -0.40987
C         16.87397        13.89174        -0.12413
C         18.16407        16.06241         0.10838
C         17.00347        16.77753         0.23063
C         18.32752        18.96634         0.41454
C         17.03745        18.22230         0.47566
C         18.32360        20.26345        -0.02670
C         16.98716        20.93435        -0.33921
C         18.30955        23.13626        -0.61868
C         17.02465        22.45454        -0.34736
C         18.31487        24.64658        -0.61667
C         17.03212        25.33801        -0.44117
C         18.33436        27.49628        -0.25151
C         17.04077        26.81720        -0.67516
C         18.37948        29.01142        -0.37407
C         17.03686        29.69566        -0.07393
C         18.24728        31.73179         0.64467
C         17.05656        31.03883         0.54777
C         18.25602        33.17462         0.75442
C         17.04207        33.89013         0.72107
C         18.23887        35.99699         0.45315
C         17.01700        35.29463         0.54971
C         18.25059        37.49747         0.54430
C         16.99145        38.14471         0.03593
C         18.23579        40.23337        -0.29799
C         16.96501        39.50688        -0.20976
C         18.24544        41.63265        -0.43440
C         16.97628        42.36680        -0.05400
C         18.15611        44.53168        -0.83201
C         16.96410        43.84271        -0.33610
C         18.25417        45.99761        -0.70870
C         17.09139        46.70728        -0.04519
C         18.10373        48.82652        -1.12849
C         16.95474        48.14139        -0.44342
C         18.16845        50.30359        -0.80201
C         16.96286        50.98166        -0.44015
C         18.17063        53.13521        -0.34344
C         16.98309        52.37565        -0.21259
C         18.16420        54.48846        -0.00083
C         20.62425         6.09160        -1.41803
C         20.56170         7.56247        -1.04860
C         19.40310         8.21133        -0.79479
C         20.63924        10.29615        -0.24342
C         19.37150         9.63945        -0.46587
C         20.62369        11.68923         0.23339
C         19.37725        12.48014         0.01922
C         20.63777        14.57183         0.10257
C         19.39284        13.83954        -0.05159
C         20.65822        15.91211         0.31587
C         19.41374        16.66360         0.67566
C         20.80018        18.73809        -0.29238
C         19.61729        18.19448         0.51747
C         20.86411        20.24259        -0.40490
C         19.54127        20.96840        -0.63461
C         20.74276        23.16672        -0.07123
C         19.58583        22.45398        -0.31573
C         20.73395        24.63406        -0.01547
C         19.56442        25.34861        -0.26350
C         20.82110        27.56897        -0.17723
C         19.51291        26.79970        -0.17961
C         20.72972        28.82092         0.74008
C         19.52517        29.65608         0.38041
C         20.71995        31.69256         1.21578
C         19.50273        30.99062         0.64030
C         20.73336        33.17791         0.87852
C         19.48511        33.87747         0.65410
C         20.69224        36.00597         0.23978
C         19.46491        35.29324         0.47512
C         20.69265        37.36787        -0.06462
C         19.49130        38.12293        -0.03475
C         20.71809        40.22050        -0.47481
C         19.47005        39.50263        -0.32916
C         20.69900        41.64482        -0.60601
C         19.45575        42.32421        -0.66914
C         20.74132        44.45717        -1.34429
C         19.42015        43.74806        -1.06637
C         20.69290        45.97965        -1.22195
C         19.42813        46.65855        -0.96386
C         20.60341        48.84029        -1.52723
C         19.45737        48.15949        -0.76737
C         20.59099        50.32725        -1.24603
C         19.39662        51.00839        -0.94173
C         20.57591        53.18785        -0.86211
C         19.40457        52.46569        -0.74682
C         20.63236        54.65271        -0.66186
C         19.32289        55.34428        -0.18570
C         20.66745        57.24095         0.70948
C         19.44828        56.59743         0.55478
C         20.71892        58.51047         1.39180
C         23.28575         3.32934        -1.29862
C         22.05431         4.01781        -1.18916
C         22.90090         6.16843        -0.35634
C         21.88259         5.39064        -0.93125
C         22.99002         7.57103        -0.53831
C         21.85935         8.31852        -1.22120
C         23.11478        10.35711        -0.50153
C         21.86940         9.72434        -0.64780
C         23.26134        11.61064         0.33028
C         21.93156        12.38119         0.41167
C         23.19502        14.55163        -0.09198
C         21.91654        13.81701         0.01505
C         23.15406        16.07086        -0.05278
C         21.93067        16.59017         0.74382
C         23.10032        18.85917         0.64310
C         21.77244        18.12711         0.68393
C         23.05949        20.32115         0.90305
C         21.97761        21.03821         0.20409
C         23.18143        23.13393         0.66108
C         21.97002        22.42654         0.26934
C         23.18291        24.64408         0.82651
C         21.95652        25.36341         0.29721
C         23.26043        27.47416         0.41184
C         22.01273        26.73329         0.21636
C         23.25386        28.89689         0.51798
C         22.01430        29.62653         0.64754
C         23.22478        31.80923         0.47409
C         21.99103        30.99231         0.75296
C         23.17757        33.15379         1.26370
C         21.91349        33.87133         0.85214
C         23.12223        36.08532         0.63351
C         21.97446        35.21346         0.15876
C         23.19249        37.44674         0.11807
C         21.96917        38.03704        -0.53748
C         23.16719        40.26923        -0.30520
C         21.94882        39.54460        -0.39928
C         23.13138        41.70325        -0.35563
C         21.93433        42.36958        -0.56095
C         23.19403        44.52550        -0.86882
C         21.88116        43.88331        -0.48799
C         23.17765        45.89043        -1.53200
C         21.88915        46.67246        -1.27966
C         23.11264        48.82898        -1.36215
C         21.93089        48.13492        -1.29009
C         23.15535        50.31346        -1.53476
C         21.82929        51.06213        -1.52994
C         23.13889        53.24152        -0.98122
C         21.82746        52.54146        -1.29764
C         23.08800        54.53460        -0.28034
C         21.90891        55.26253        -0.20690
C         23.15702        57.22714         0.63983
C         21.90713        56.58694         0.35344
C         23.17398        58.71261         0.92363
C         21.90145        59.19851         1.58950
C         23.16047        61.03282         2.62859
C         21.94231        60.42619         2.30219
C         24.57564         3.84567        -1.19203
C         26.01548         5.87597        -0.83715
C         24.89028         5.09610        -0.58476
C         26.14362         7.23711        -0.39490
C         24.15656         8.26291        -0.26954
C         25.70326        10.28876        -0.44794
C         24.39660         9.62559        -0.87178
C         25.71369        11.70013        -0.27352
C         24.48137        12.43225        -0.06790
C         25.68272        14.59259        -0.09807
C         24.48721        13.82920         0.01519
C         25.70202        16.00394         0.06245
C         24.43207        16.64064         0.57829
C         25.69186        18.84737         0.69150
C         24.40591        18.14982         0.47610
C         25.66304        20.23765         1.21998
C         24.36700        21.02432         1.20589
C         25.62770        23.22676         1.17539
C         24.36693        22.47351         0.93415
C         25.71053        24.62235         0.76317
C         24.46215        25.27990         0.23007
C         25.71421        27.47203         0.60967
C         24.47570        26.77551         0.45108
C         25.71220        28.89636         0.65121
C         24.49252        29.61633         0.61662
C         25.71402        31.74164         0.98342
C         24.49956        31.04981         0.69274
C         25.70813        33.19599         1.42457
C         24.44789        33.91840         1.03665
C         25.66552        36.12429         0.76413
C         24.43045        35.36916         1.01354
C         25.63157        37.45012         0.39715
C         24.38716        38.16547         0.15202
C         25.64997        40.32668        -0.12784
C         24.41066        39.58435        -0.10564
C         25.66150        41.73752        -0.26933
C         24.37573        42.49723        -0.02031
C         25.64833        44.53250        -0.86224
C         24.36789        43.87441        -0.64283
C         25.63263        45.98132        -1.05132
C         24.44187        46.65425        -1.21818
C         25.67502        48.89123        -1.28308
C         24.40551        48.11465        -1.43581
C         25.67216        50.36951        -1.09808
C         24.39394        51.07627        -1.18527
C         25.60980        53.17300        -0.66017
C         24.37705        52.43137        -0.91294
C         25.59215        54.45212        -0.18810
C         24.33195        55.02813         0.40861
C         25.62122        57.15809         0.87660
C         24.34803        56.52480         0.56878
C         25.59574        58.45188         1.52120
C         24.42427        59.16818         1.65217
C         24.37743        60.40975         2.34855
C         27.05248         8.16761        -0.83703
C         28.15847        10.32991        -0.51769
C         26.94918         9.60421        -0.57685
C         28.18869        11.74075        -0.42420
C         26.93849        12.41358        -0.36429
C         28.22430        14.62602        -0.34675
C         26.92118        13.87644        -0.42378
C         28.19554        16.01053         0.26798
C         26.88592        16.75222         0.10778
C         28.12118        18.95585         0.21759
C         26.86625        18.16910         0.40138
C         28.16726        20.38459         0.64136
C         26.96026        20.98509         1.30351
C         28.21945        23.20158         1.16556
C         26.95021        22.48101         1.40401
C         28.17256        24.58156         1.07645
C         26.92229        25.31395         0.87492
C         28.19837        27.45758         1.14812
C         26.92992        26.74320         0.76027
C         28.24387        28.93262         0.87685
C         26.99359        29.66617         0.47425
C         28.17882        31.77557         1.33063
C         26.92087        31.06864         0.99949
C         28.19216        33.24969         1.15932
C         26.98212        33.92089         1.06283
C         28.17752        36.01348         0.46168
C         26.96159        35.42491         1.13299
C         28.18112        37.46399         0.10739
C         26.86548        38.17291        -0.01151
C         28.12586        40.29699        -0.34937
C         26.89531        39.63864        -0.11716
C         28.12302        41.70773        -0.59880
C         26.87317        42.41353        -0.53610
C         28.10757        44.54086        -1.23541
C         26.84354        43.84326        -0.78777
C         28.11172        46.01497        -0.89360
C         26.90155        46.68207        -0.90807
C         28.15792        48.88792        -0.71261
C         26.86470        48.14764        -0.77475
C         28.18574        50.31914        -1.20427
C         26.86405        51.03421        -1.01082
C         28.10578        53.11427        -0.31123
C         26.92287        52.54309        -1.07618
C         28.05331        54.39819         0.12560
C         26.86874        55.26645        -0.21912
C         26.80621        56.52415         0.59634
C         29.42851        12.46959        -0.31788
C         30.68715        14.60077         0.00806
C         29.48917        13.86174        -0.19095
C         30.72151        16.02205         0.01503
C         29.44081        16.76136        -0.14594
C         30.68461        18.95466         0.24202
C         29.42235        18.25729        -0.04061
C         30.68964        20.34775         0.56117
C         29.47521        21.06714         0.79708
C         30.72396        23.14312         0.98895
C         29.48045        22.46095         1.03231
C         30.75450        24.60149         1.09241
C         29.43898        25.34385         1.11318
C         30.69422        27.48958         0.69449
C         29.39700        26.73673         0.53522
C         30.71276        28.85528         0.85148
C         29.44382        29.57882         0.95968
C         30.74908        31.76254         1.01615
C         29.48294        31.03446         1.23618
C         30.71224        33.22564         1.04265
C         29.46211        33.90894         1.10878
C         30.67269        36.15813         1.00947
C         29.46730        35.33324         0.71677
C         30.68414        37.67528         0.78014
C         29.40520        38.25273         0.20113
C         30.67010        40.25292        -0.38971
C         29.38683        39.57483        -0.18505
C         30.64394        41.62680        -1.01762
C         29.36488        42.41777        -0.79609
C         30.60132        44.56633        -0.87383
C         29.38591        43.80751        -0.90400
C         30.61195        45.96230        -0.83920
C         29.37638        46.72127        -0.82590
C         30.63040        48.88266        -0.76878
C         29.41200        48.12142        -0.78558
C         30.60141        50.24921        -0.56466
C         29.37982        51.01504        -0.58579
C         29.30586        52.31834        -0.17360
C         31.89522        16.77640         0.08273
C         33.12933        18.91671         0.26216
C         31.90512        18.21547         0.17477
C         33.17246        20.32744         0.41160
C         31.93697        21.04122         0.60243
C         33.18931        23.17685         0.70049
C         31.95266        22.45780         0.76409
C         33.18972        24.61243         0.63582
C         31.97777        25.30115         0.67456
C         33.23453        27.50397         0.35082
C         31.91976        26.73606         0.39760
C         33.18340        28.95954         0.59854
C         31.95499        29.61095         0.75051
C         33.15266        31.81358         0.34984
C         31.91312        31.06142         0.78517
C         33.18795        33.21051         0.92465
C         31.91352        33.94627         0.94697
C         33.22014        36.15886         0.81185
C         31.96672        35.41185         1.09192
C         33.18096        37.44396         0.34408
C         31.86529        38.07159        -0.11337
C         33.15111        40.22401        -0.70980
C         31.85359        39.57824        -0.30005
C         33.09631        41.73065        -0.60159
C         31.91359        42.38629        -0.72620
C         33.04327        44.54399        -0.22816
C         31.93283        43.86403        -1.02244
C         33.04974        46.02184        -0.50968
C         31.88917        46.68076        -0.75672
C         31.94906        48.17915        -0.96827
C         34.39155        21.04281         0.40173
C         35.65238        23.15973         0.57461
C         34.43919        22.46144         0.55821
C         35.72726        24.61368         0.95062
C         34.44330        25.35350         0.62125
C         35.74321        27.46108         0.72356
C         34.46263        26.72397         0.58236
C         35.71634        28.95555         0.68264
C         34.42908        29.69023         0.62169
C         35.68607        31.80539         0.48782
C         34.44414        31.06843         0.58083
C         35.69653        33.19446         0.49229
C         34.48970        33.94128         0.94513
C         35.57229        35.98378         0.00215
C         34.56362        35.46818         1.03461
C         35.61428        37.49789         0.00306
C         34.42802        38.17253         0.09673
C         35.64000        40.33087        -0.42886
C         34.36358        39.68206         0.08138
C         35.59761        41.71810        -0.64464
C         34.37412        42.46376        -0.55434
C         34.35543        43.83895        -0.45699
C         36.94600        25.32656         0.41601
C         38.13528        27.46071         0.01833
C         36.99237        26.72578         0.35349
C         38.08895        28.92739        -0.32588
C         36.92682        29.68749         0.26553
C         38.15760        31.80769         0.07612
C         36.92084        31.06650         0.25808
C         38.16808        33.19162         0.15100
C         36.92383        33.92832         0.28819
C         38.15473        36.10851         0.40116
C         36.90427        35.30658         0.19753
C         38.07375        37.48642        -0.21152
C         36.87919        38.18423        -0.25436
C         36.82339        39.59046        -0.54079
C         39.38326        29.68611        -0.17620
C         40.62933        31.82627        -0.16646
C         39.39760        31.05589        -0.08682
C         40.62967        33.18493        -0.15187
C         39.40425        33.95130         0.01612
C         39.39748        35.32158         0.07065
O         35.88412        28.21031         1.98374
O         27.89735        20.04394        -0.76665
O         16.16642        29.66386        -1.26851
O         26.18748        22.98959         2.52914
O         23.69987        18.68756        -0.68930
O         15.89633        32.41108         2.23792
O         26.44752        20.31066         2.48225
O         23.93532         5.54637         0.35919
O          8.33442        32.86376        -1.20782
O         20.64848        18.43657         1.70139
O         22.48962        50.69652        -2.80062
O         23.47607        35.93957         2.03600
O         25.23622        48.50659        -2.61741
O         18.50831        43.99317        -2.19432
O         28.85664        31.31951         2.55643
O         29.37913        17.55127        -1.35035
O         28.84942        35.32906        -0.63988
O         25.14082         7.69168         0.51528
O          9.96603        33.30005         2.05281
O         22.52236        14.01218        -1.31538
O         21.11224        19.29555        -1.56654
O         33.94382        33.35344         2.18577
O         14.52920        29.87806         1.95168
O         31.21808        35.83861         2.32651
O         30.18153        25.18698         2.34438
O         18.36571        23.88543        -1.88649
O         27.50313        37.58683        -1.20534
O         21.18176        12.00467         1.60962
O         19.83136        55.42610        -1.57510
O         23.38932        20.70477         2.26432
O         22.53363        53.29225        -2.32634
O         27.59425        14.46531        -1.63343
O         15.02184        37.53964        -1.30655
O         32.54277        27.11641        -0.88977
O         27.36529        48.67606         0.50348
O         28.33410        27.31512         2.59188
H         27.66122        27.88028         3.02545
O         18.22212        14.76713        -1.87446
H         17.40231        15.22220        -2.16281
O         18.04648        11.49539         1.70801
H         18.97040        11.40901         2.03169
O         22.23310        34.91296        -1.24789
H         22.57292        33.98500        -1.31056
O         32.26259        43.96359        -2.43769
H         31.60080        43.41762        -2.92055
O         32.70212        44.37467         1.18456
H         33.46238        44.68369         1.71958
O         24.28718        54.47403         1.78827
H         23.58456        54.95731         2.27355
O         24.47451        16.29708         1.98683
H         25.15294        16.85700         2.41908
O         24.40692        25.02939        -1.20646
H         25.12473        25.54119        -1.63480
O         30.68271        41.39894        -2.47551
H         31.43750        40.78721        -2.64623
O         24.53709         9.48536        -2.31334
H         23.66783         9.18272        -2.68364
O         35.07589        35.80527         2.34236
H         34.63305        35.20302         2.98324
O         20.64605        31.54982         2.66039
H         20.58635        30.58685         2.85359
O         23.58732        11.15299         1.67997
H         22.73849        11.15360         2.18607
O         35.05666        35.56194        -1.29346
H         35.66861        35.88633        -1.98636
O         12.24844        38.33167         2.31302
H         12.26618        37.42501         2.68907
O         22.05077        37.77294        -1.97523
H         22.91867        38.09916        -2.29359
O         19.26258        20.95013        -2.07085
H         19.85650        20.26382        -2.46465
O         29.18180        26.57567        -0.88695
H         29.16543        27.46530        -1.29989
O         19.70492        48.41027         0.63636
H         19.06589        47.85832         1.15368
O         23.04502        16.51231        -1.40702
H         22.70591        15.75584        -1.94101
O         23.21394        59.37662        -0.38123
H         23.22855        60.34293        -0.21630
O         34.15814        40.11932         1.44911
H         34.89334        39.77018         1.99430
O         38.19940        36.35007         1.86972
H         37.26789        36.35489         2.19291
O         21.60342        44.23261         0.89383
H         22.31575        43.82817         1.44059
O         10.03922        31.06063        -1.71708
H          9.65605        31.88892        -2.09331
O         33.03385        31.99646        -1.09839
H         32.95682        31.10984        -1.51019
O         23.17328        32.23856        -0.93814
H         23.03252        31.43996        -1.49125
O         16.88948        42.25882         1.40133
H         16.96407        41.30942         1.64014
O         37.81614        28.93213        -1.79748
H         37.93181        29.85619        -2.10843
O         23.07630        32.77770         2.67222
H         22.59602        33.49232         3.14205
O         17.49879        46.75742         1.40741
H         16.71153        47.05661         1.91338
O         27.15018        29.79449        -1.01004
H         26.35129        30.25987        -1.34133
O         21.07456        28.03351        -1.52426
H         20.24795        28.47843        -1.85322
O         20.62125         6.00728        -2.86610
H         19.77095         6.37240        -3.18837
O          8.20612        36.15112         2.50931
H          9.00203        36.65335         2.78877
O         27.16459        52.88785        -2.49065
H         26.36591        52.61853        -2.99579
O         20.40804        48.70081        -2.97183
H         21.11342        49.24757        -3.39666
O         16.28110        20.80274         1.94800
H         15.57235        20.51403         2.56004
O         32.40325        48.44523        -2.31287
H         31.75059        48.06192        -2.93472
O         17.81604        48.68337        -2.54904
H         18.66469        48.80432        -3.04618
O         28.41742        50.26464        -2.64001
H         28.33674        51.18742        -2.97490
O         28.35248        15.82846         1.71413
H         27.57558        15.33260         2.05006
O         22.06992        16.23626         2.13192
H         21.22179        16.49427         2.56749
O         18.28172        37.80606         1.99919
H         19.07336        37.36309         2.37371
O         22.09541         8.38115        -2.66024
H         21.82469         7.50598        -3.03571
O         21.06043        44.11763        -2.72284
H         20.21669        44.18527        -3.22836
O         35.85340        24.65430         2.42583
H         35.87819        25.60003         2.69118
O         13.23733        24.51653        -2.10980
H         12.44147        23.98832        -2.33469
O         23.24142        45.66538        -2.97478
H         22.47689        45.07447        -3.20243
O         20.54756        28.39911         2.11935
H         21.29004        27.79983         2.35161
O         23.18451        24.89914         2.25811
H         23.84359        24.30723         2.68159
O         17.03210        27.00669        -2.15568
H         16.28651        26.47565        -2.51267
O         24.29329        42.71477         1.43941
H         25.14077        43.11927         1.72408
O         18.66357        29.27677        -1.78659
H         17.92469        28.85197        -2.28953
O         25.70688        33.21174         2.90380
H         24.80365        32.89658         3.17580
O         30.85670        38.32525         2.05616
H         31.18921        37.64352         2.68887
O         19.25428        16.44286         2.12548
H         18.62226        17.11448         2.46083
O         27.06074        55.68089        -1.61508
H         27.19801        54.85700        -2.14348
O         27.13591        35.73809         2.55961
H         26.60365        35.07638         3.06447
O         33.33594        39.89288        -2.12612
H         34.14685        40.35648        -2.43122
O         16.62698        20.52871        -1.68092
H         17.38934        20.77927        -2.25986
O         15.81259        41.80017        -2.07291
H         15.09948        41.25824        -2.47005
O         31.62531        37.51181        -1.43106
H         32.23116        37.96383        -2.05943
O         28.07010        44.49480        -2.71064
H         27.22956        44.91313        -2.99836
H          4.90050        31.20951        -0.01318
H          4.82113        33.61228         0.38667
H          7.39927        26.92736         0.06036
H          6.16325        29.08527         0.08941
H          6.03315        35.79707         0.80744
H          7.36090        38.05749         0.45693
H          9.93175        22.62334         0.10205
H          8.66061        24.75448         0.08049
H          8.62332        40.15534         0.38574
H          9.85187        42.28826         0.32418
H         12.41404        18.42030         0.51854
H         11.18113        20.53808         0.41269
H         11.12416        44.43491         0.33411
H         12.40571        46.54114         0.36268
H         14.71342        14.16779         0.03400
H         13.56306        16.31058         0.23814
H         13.63446        48.65715         0.31424
H         14.83383        50.80680        -0.01922
H         17.23124         9.75824        -0.47219
H         15.89418        12.00118         0.06639
H         16.05543        52.88505         0.08729
H         17.27536        54.90972         0.49270
H         19.71256         5.55618        -1.02815
H         18.45087         7.65592        -0.76728
H         18.54276        57.03327         1.00317
H         19.77668        58.92786         1.78019
H         23.20926         2.30322        -1.69183
H         21.16558         3.46590        -1.53413
H         23.15622        61.97807         3.18945
H         20.99992        60.87079         2.65483
H         25.40047         3.26056        -1.62664
H         26.75790         5.50213        -1.55702
H         26.53515        58.85297         1.93251
H         25.31373        60.84255         2.73081
H         27.90971         7.82381        -1.43524
H         29.10943         9.78015        -0.58164
H         28.92033        54.84903         0.63269
H         27.75686        57.02392         0.83805
H         30.36278        11.88854        -0.28006
H         31.63603        14.05091         0.10579
H         31.55019        50.78722        -0.41224
H         30.19376        52.80587         0.25917
H         32.86470        16.25648         0.12200
H         34.07427        18.35841         0.18548
H         33.99247        46.58524        -0.41982
H         32.72148        48.62136        -0.28729
H         35.33471        20.49085         0.27441
H         36.59352        22.60064         0.45832
H         36.53449        42.26236        -0.84127
H         35.29924        44.40398        -0.39768
H         37.85295        24.74223         0.19733
H         39.06061        26.91607        -0.22689
H         39.01451        38.03088        -0.38837
H         37.75425        40.10724        -0.82119
H         40.32934        29.13967        -0.31443
H         41.57593        31.27580        -0.27375
H         41.57758        33.73674        -0.23878
H         40.34759        35.87243        -0.01192
