         236
 CSIRO Nanostructure Databank - Neutral Graphene Oxide Data Set
C        -11.11843         0.61742        -0.38134
C         -9.90917         1.38243        -0.18138
C         -8.69044         0.64611         0.05026
C         -7.44539         1.42478         0.39527
C         -6.19018         0.64516        -0.02916
C         -4.95972         1.47368         0.27177
C         -3.70094         0.81041         0.67898
C         -2.42230         1.50344         0.37003
C         -1.20480         0.71925         0.04612
C          0.08070         1.44106         0.23556
C          1.26340         0.77012         0.37297
C          2.44212         1.30141         1.14130
C          3.76665         0.72667         0.65511
C          4.95327         1.40992         0.77300
C          6.23688         0.65770         0.67490
C          7.53798         1.39836         0.66021
C          8.71286         0.78767        -0.04645
C         10.01436         1.47683         0.16467
C         11.20270         0.63475         0.16355
C         -9.90255         2.77550        -0.24653
C         -8.66493         3.52918        -0.29863
C         -7.46303         2.82639        -0.15435
C         -6.18310         3.46534        -0.58617
C         -4.95739         2.80511        -0.00056
C         -3.69521         3.59474         0.07472
C         -2.42000         2.85262        -0.29574
C         -1.16001         3.58231         0.10657
C         -0.02761         2.87113         0.47944
C          1.14008         3.56503         1.05832
C          2.44872         2.83078         1.47484
C          3.71353         3.58843         1.02254
C          5.02532         2.86101         1.28583
C          6.23013         3.59738         0.70791
C          7.53296         2.89603         0.70674
C          8.75561         3.59379         0.22477
C         10.00941         2.83818         0.28425
C         -8.64378         4.93819        -0.54460
C         -7.42265         5.67104        -0.61190
C         -6.20986         4.96997        -0.51839
C         -4.94601         5.65950        -0.75119
C         -3.68963         5.03759        -0.25155
C         -2.37102         5.66543        -0.71222
C         -1.18915         5.02180         0.00766
C         -0.04067         5.72721         0.22565
C          1.14696         5.04993         0.78521
C          2.45691         5.67828         0.47726
C          3.71803         4.93030         0.74119
C          4.94236         5.65806         0.38319
C          6.17106         4.88308         0.25801
C          7.33047         5.51369        -0.49320
C          8.66572         4.86606        -0.23143
C         -7.39053         7.12563        -0.69318
C         -6.22137         7.85379        -0.79146
C         -4.92324         7.16821        -0.95813
C         -3.65448         7.88128        -0.70126
C         -2.43258         7.18210        -0.53777
C         -1.26812         7.89882        -0.24752
C         -0.07811         7.22322         0.37075
C          1.22177         7.91748         0.11757
C          2.47338         7.14136         0.16914
C          3.74726         7.87822         0.48680
C          4.95980         7.02779         0.17398
C          6.20188         7.71979        -0.15177
C          7.35452         7.01359        -0.36495
C         -6.16153         9.29824        -0.69984
C         -4.97547         9.97049        -0.63417
C         -3.68476         9.30021        -0.58318
C         -2.47978        10.01246        -0.46472
C         -1.24135         9.33073        -0.30269
C          0.01429        10.00386        -0.22575
C          1.24902         9.29420        -0.10624
C          2.54967         9.93998        -0.27882
C          3.73568         9.27491        -0.10110
C          5.02486         9.89322        -0.32092
C          6.17819         9.17046        -0.29778
C        -11.09425        -0.74626        -0.39682
C         -9.87420        -1.48432        -0.17038
C         -8.65629        -0.74096         0.06794
C         -7.42554        -1.47554         0.39591
C         -6.22843        -0.76934         0.53445
C         -4.99272        -1.43496         0.99140
C         -3.70427        -0.66283         0.98272
C         -2.39883        -1.41323         0.85739
C         -1.24958        -0.75603         0.13308
C          0.10090        -1.45184         0.04800
C          1.28892        -0.71267         0.67392
C          2.55646        -1.41903         0.23984
C          3.72201        -0.67283         0.22735
C          4.93886        -1.31106        -0.29703
C          6.23990        -0.73570         0.11648
C          7.46484        -1.41296        -0.34768
C          8.68777        -0.62955        -0.53562
C          9.99229        -1.34759        -0.86591
C         11.18255        -0.66576        -0.20819
C         -9.84666        -2.87005        -0.17533
C         -8.65640        -3.60332         0.14920
C         -7.48047        -2.90599         0.51942
C         -6.31025        -3.67231         1.03746
C         -4.99846        -2.93848         1.21060
C         -3.64453        -3.70938         1.43208
C         -2.37944        -2.90944         0.99995
C         -1.15556        -3.59050         0.48189
C          0.01946        -2.91294         0.35685
C          1.30311        -3.62759         0.22341
C          2.55386        -2.85133        -0.00001
C          3.69530        -3.54462        -0.38410
C          4.93699        -2.79938        -0.63507
C          6.22794        -3.50722        -0.63636
C          7.43567        -2.80396        -0.56406
C          8.71711        -3.53406        -0.55418
C          9.90683        -2.82623        -0.56810
C         -8.65105        -5.02028         0.02781
C         -7.51530        -5.80645         0.27302
C         -6.36754        -5.22307         1.08353
C         -5.01953        -5.89233         0.73739
C         -3.70403        -5.15837         0.87128
C         -2.57143        -5.66844         0.01224
C         -1.28345        -4.93986        -0.10634
C         -0.05230        -5.65341        -0.66842
C          1.25028        -5.07306        -0.13953
C          2.49781        -5.76309        -0.52380
C          3.74251        -5.00413        -0.52400
C          4.93023        -5.66380        -0.74516
C          6.24350        -4.96389        -0.99808
C          7.44721        -5.68035        -0.39717
C          8.66415        -4.94442        -0.35337
C         -7.49013        -7.16634        -0.05758
C         -6.26199        -7.90090        -0.10037
C         -5.06530        -7.20713         0.05049
C         -3.81559        -7.89318        -0.32184
C         -2.54785        -7.12382        -0.36645
C         -1.24851        -7.85126        -0.35722
C         -0.08001        -7.16012        -0.49281
C          1.17220        -7.88919        -0.92556
C          2.46311        -7.13608        -0.68105
C          3.68070        -7.88044        -0.68852
C          4.99645        -7.16827        -0.87036
C          6.04478        -7.72403         0.10445
C          7.36732        -7.00988        -0.03250
C         -6.21193        -9.33135        -0.35705
C         -5.03746       -10.03614        -0.34935
C         -3.75911        -9.37110        -0.28434
C         -2.53261       -10.00920        -0.28565
C         -1.26836        -9.31358        -0.32390
C         -0.04969        -9.99540        -0.30449
C          1.20354        -9.32715        -0.45970
C          2.42960        -9.96399        -0.33499
C          3.67266        -9.25976        -0.48364
C          4.95982        -9.93255        -0.28598
C          6.08849        -9.23680        -0.02820
O         -0.27073         7.41064         1.83734
H         -0.31832         8.37676         2.00494
O          5.22142         2.80072         2.71555
H          4.34693         2.58958         3.12738
O          3.72321         8.05464         1.94081
H          4.54280         8.52791         2.19688
O         -3.27773        -7.35151        -1.62334
O         -4.84683         6.24160        -2.09239
O         -4.11495        -6.07961         1.90477
O         -3.51621        -3.88384         2.84424
H         -3.35128        -2.99562         3.23504
O          5.46859        -7.50584        -2.21885
H          4.68645        -7.53803        -2.81005
O          1.07125        -7.95506        -2.39505
H          0.77212        -7.05856        -2.68943
O         -1.53205        -0.10142        -1.14376
O          6.45115        -5.00515        -2.44985
H          6.33843        -5.95377        -2.71142
O          4.85565        -1.74307        -1.67621
O          2.21043         0.55348         2.43060
O         -6.68793        -5.59113         2.43667
H         -6.08470        -5.07354         3.01945
O          0.85162         4.54131         2.12229
O          2.52254         2.88210         2.92010
H          2.02919         3.69048         3.20452
O         -2.43782         2.69868        -1.72860
H         -2.29819         3.62848        -2.10688
O          5.56161        -7.42571         1.44799
H          6.19214        -7.80890         2.09244
O         -6.22581         0.45475        -1.47032
H         -6.16894         1.34731        -1.90168
O         -0.01364        -5.40581        -2.10335
H         -0.95461        -5.32931        -2.39632
O          1.31367        -0.62062         2.14126
O         -6.09230         3.18592        -2.05896
H         -5.38410         3.76044        -2.43017
O          7.05680         5.25982        -1.92150
H          6.19793         5.68369        -2.13521
O         -2.91348         1.51782         1.72253
O          0.49459        -1.49925        -1.35732
H         -0.15840        -0.95450        -1.86518
O         10.21909        -1.23064        -2.29986
H          9.77393        -0.39840        -2.58433
O         -2.19540         5.33470        -2.07323
O         -7.38588         1.53912         1.84948
H         -8.18949         2.01103         2.15258
O          2.50385         6.16076        -0.92615
O          6.28552        -0.50350         1.58225
O          8.42109         0.51970        -1.46309
O         -1.96429        -2.00964         2.10043
O         -4.39875        -0.86244         2.24058
O          1.32870        -4.69413         1.26811
O         -5.88701        -3.17323         2.35063
O         -3.67153         4.60598         1.14077
O          7.83003         2.07810         1.89991
O         -2.34614        -4.81523        -1.15894
H         12.12248        -1.23876        -0.18811
H         12.14720         1.08918         0.50140
H         10.95854         3.39275         0.34243
H          9.56437         5.39223        -0.58841
H          8.28008         7.54534        -0.63466
H          7.13884         9.67278        -0.48537
H          5.05796        10.97205        -0.53649
H          2.56359        10.98815        -0.61650
H          0.03803        11.09865        -0.33512
H         -2.49550        11.11277        -0.47000
H         -4.98115        11.06902        -0.57072
H         -7.10828         9.85856        -0.67831
H         -8.34693         7.66405        -0.60428
H         -9.59911         5.47424        -0.64645
H        -10.85006         3.31056        -0.40994
H        -12.06172         1.15806        -0.54775
H        -12.02091        -1.31372        -0.56800
H        -10.76357        -3.43418        -0.40248
H         -9.54392        -5.50573        -0.39594
H         -8.40794        -7.64663        -0.43033
H         -7.16718        -9.86701        -0.45691
H         -5.05652       -11.13256        -0.43737
H         -2.50660       -11.11020        -0.29653
H         -0.05001       -11.08751        -0.16064
H          2.46124       -11.03466        -0.07896
H          4.97601       -11.03340        -0.29485
H          7.02778        -9.76470         0.19932
H          8.26247        -7.50319         0.38377
H          9.59954        -5.47758        -0.12041
H         10.85619        -3.38293        -0.52449
