         420
 CSIRO Nanostructure Databank - Neutral Graphene Oxide Data Set
C         28.02170        27.53608        -0.83340
C         28.05835        28.96478        -0.84750
C         26.98083        29.72963        -1.40516
C         27.94200        31.75305        -0.36000
C         26.94425        31.08566        -1.27295
C         28.02588        33.25726        -0.43270
C         26.86078        34.00037        -0.56770
C         27.99136        36.04175         0.11780
C         26.83601        35.37832        -0.29080
C         27.94723        37.41273         0.64547
C         26.73835        37.94134         1.13739
C         27.88962        39.95723         1.75342
C         26.71655        39.19454         1.73875
C         27.91370        42.27536         1.54048
C         26.75426        43.06148         1.53197
C         27.86598        44.63480         0.08380
C         26.70725        44.21811         0.76775
C         27.86069        45.91260        -0.58698
C         30.26119        27.43357         0.29569
C         29.04040        26.80153        -0.31181
C         30.41952        28.90790        -0.02171
C         29.25038        29.65580        -0.42687
C         30.57401        31.77572        -0.39399
C         29.26637        31.04757        -0.41089
C         30.47402        33.20854         0.06181
C         29.24811        33.91801        -0.09378
C         30.44191        36.01412         0.44357
C         29.22946        35.32927         0.13173
C         30.43895        37.52468         0.33531
C         29.13809        38.16810         0.75139
C         30.32147        40.38458         1.25152
C         29.09630        39.50674         1.19737
C         30.30882        41.80503         0.80392
C         29.07808        42.60039         0.78740
C         30.26268        44.34880        -0.62755
C         29.04886        43.85420         0.12462
C         30.28848        45.85566        -0.74909
C         29.03886        46.52061        -0.93071
C         32.86096        24.87796        -1.00525
C         31.61778        25.52813        -0.73085
C         32.78148        27.32367         0.48762
C         31.54918        26.71162        -0.05048
C         32.73205        28.77679         0.96001
C         31.59606        29.57153         0.33393
C         32.81863        31.70014         0.72944
C         31.68239        30.99510         0.27483
C         32.85644        33.12030         0.73733
C         31.63825        33.87472         0.48533
C         32.83174        35.99406         1.21231
C         31.61430        35.29897         0.65004
C         32.85610        37.48824         0.95826
C         31.64840        38.17528         0.94725
C         32.86873        40.36138         0.83558
C         31.63926        39.63404         1.15482
C         32.80197        41.73374         0.56734
C         31.52776        42.42307         0.42580
C         32.75668        44.42511        -0.39456
C         31.55436        43.75511        -0.12481
C         32.76336        45.84142        -0.75727
C         31.50930        46.55121        -0.80885
C         32.71724        48.67385        -0.94680
C         31.53893        47.98113        -0.88945
C         35.42100        23.45824        -1.34037
C         35.33844        24.77291        -0.92404
C         34.07624        25.41600        -0.63366
C         35.35238        27.44841         0.26260
C         34.09459        26.66622         0.16048
C         35.29077        28.83498         0.70895
C         34.07311        29.48340         0.85927
C         35.32332        31.68747         1.25068
C         34.01446        30.93126         1.15723
C         35.31010        33.14532         1.07486
C         34.10270        33.82877         0.95765
C         35.33856        35.96994         0.87029
C         34.12602        35.27755         0.93158
C         35.33798        37.44482         0.53337
C         34.08924        38.19255         0.92173
C         35.32655        40.31975         0.72092
C         34.10756        39.61576         0.80357
C         35.30330        41.77042         0.60834
C         34.02272        42.44646         0.30694
C         35.26597        44.36504        -0.64557
C         34.00919        43.74861        -0.16534
C         35.23248        45.82339        -1.07544
C         33.95938        46.56090        -0.93225
C         35.19653        48.71415        -1.14926
C         33.97174        47.99143        -1.00932
C         35.26993        50.12190        -1.10072
C         37.87544        23.41747        -1.20048
C         36.66625        22.80799        -1.53037
C         37.86920        24.78065        -0.73457
C         36.60360        25.59461        -0.90455
C         37.79833        27.49235         0.25869
C         36.54773        26.84794        -0.06240
C         37.79391        28.86134         0.66733
C         36.55758        29.56551         0.80922
C         37.80581        31.69289         0.98549
C         36.57753        30.95524         1.02040
C         37.83569        33.11465         1.03268
C         36.58623        33.87519         1.39961
C         37.82818        35.98344         0.76430
C         36.58734        35.30305         0.93565
C         37.86476        37.40672         0.71156
C         36.61410        38.13158         0.96842
C         37.87784        40.31663         0.55360
C         36.61628        39.64879         0.94233
C         37.86288        41.68114         0.21697
C         36.62900        42.48109         0.34323
C         37.75457        44.44349        -0.68065
C         36.58316        43.79270        -0.32963
C         37.73106        45.85999        -1.05197
C         36.51323        46.53920        -1.12546
C         37.78629        48.76410        -1.24995
C         36.45720        47.98157        -1.36676
C         37.72775        50.18717        -0.90209
C         36.46976        50.82244        -0.97490
C         40.37642        20.63131        -1.87694
C         39.20673        21.29187        -1.68986
C         40.29439        23.29513        -0.80964
C         39.14285        22.67816        -1.24060
C         40.36825        24.78434        -0.60720
C         39.03174        25.42337        -0.31135
C         40.21432        27.36923         0.77369
C         38.99989        26.75699         0.19352
C         40.28659        28.83690         0.83868
C         39.03648        29.56262         0.83499
C         40.27858        31.69625         1.18050
C         39.02648        30.96102         0.96422
C         40.30282        33.13518         0.88831
C         39.05976        33.82782         0.87307
C         40.30546        35.94768         0.57119
C         39.06795        35.25804         0.74587
C         40.30022        37.37873         0.41570
C         39.07807        38.11149         0.54261
C         40.28588        40.21983         0.06893
C         39.07471        39.55139         0.40937
C         40.27740        41.63138        -0.18240
C         39.05280        42.35491        -0.17350
C         40.23774        44.42129        -0.73527
C         39.03132        43.75406        -0.51723
C         40.26622        45.84169        -1.23971
C         38.97571        46.59366        -1.06089
C         40.21433        48.71485        -0.70729
C         39.00729        47.98747        -0.99165
C         40.17584        50.11665        -0.48321
C         38.93539        50.84832        -0.52934
C         40.11459        52.90230         0.07897
C         38.94872        52.24340        -0.21885
C         42.92525        20.49696        -1.47794
C         41.67110        21.27968        -1.61284
C         42.71621        23.02365        -0.03741
C         41.60039        22.62051        -0.95013
C         42.66527        24.42189         0.48654
C         41.49291        25.21918         0.29153
C         42.79827        27.32798         0.82687
C         41.51360        26.58139         0.83541
C         42.77403        28.74250         0.84519
C         41.52653        29.46337         0.93681
C         42.81205        31.66531         0.83691
C         41.58212        30.92148         1.15732
C         42.77668        33.05964         0.72197
C         41.53972        33.80397         0.73770
C         42.76961        35.92191         0.23933
C         41.54000        35.22810         0.53668
C         42.73984        37.33384         0.01699
C         41.51581        38.06893         0.14511
C         42.73367        40.17830        -0.29888
C         41.50720        39.48554        -0.03852
C         42.73591        41.60895        -0.44826
C         41.49742        42.32496        -0.42584
C         42.71444        44.45541        -0.70502
C         41.47906        43.73299        -0.63297
C         42.71524        45.89420        -0.68966
C         41.48854        46.60155        -0.78055
C         42.67657        48.71030        -0.34644
C         41.46024        47.99813        -0.60974
C         42.64416        50.12113        -0.13110
C         41.39265        50.81441        -0.16880
C         42.57324        52.89247         0.38635
C         41.36292        52.20848         0.09871
C         44.03007        21.01020        -0.90581
C         45.27498        23.03044         0.14003
C         44.01111        22.26966        -0.10099
C         45.28204        24.42344         0.38456
C         44.05162        25.16615         0.72905
C         45.25813        27.33529         0.60403
C         44.03005        26.63026         0.69417
C         45.24655        28.75710         0.62621
C         44.00894        29.47862         0.73656
C         45.24226        31.60371         0.39590
C         44.01801        30.90066         0.69330
C         45.24401        32.98421         0.25490
C         44.07828        33.82164         0.70890
C         45.16287        35.88123        -0.32419
C         43.99725        35.21478         0.11862
C         45.13884        37.28170        -0.49971
C         43.95045        38.02277        -0.27798
C         45.18391        40.18065        -0.50311
C         43.94934        39.46183        -0.38249
C         45.19361        41.60344        -0.59238
C         43.94825        42.31434        -0.61060
C         45.16607        44.47454        -0.66119
C         43.94375        43.75333        -0.67724
C         45.17884        45.87752        -0.52739
C         43.93799        46.60032        -0.52573
C         45.13495        48.74436        -0.15524
C         43.92145        48.01995        -0.34462
C         45.11364        50.12434         0.08626
C         43.85437        50.83231         0.12531
C         43.78134        52.22723         0.38936
C         47.70990        23.04394         0.09928
C         46.51050        22.36529        -0.01125
C         47.74139        24.44527         0.28236
C         46.50861        25.15078         0.38281
C         47.73225        27.27109         0.54471
C         46.51415        26.59251         0.51466
C         47.75741        28.74715         0.85327
C         46.48284        29.47921         0.50494
C         47.71002        31.56903         0.00641
C         46.47949        30.85418         0.28537
C         47.72789        32.93069        -0.25539
C         46.42690        33.63719        -0.33059
C         47.72769        35.75063        -1.08909
C         46.37965        35.08468        -0.70235
C         47.67413        37.27577        -0.93875
C         46.38802        38.02060        -0.78727
C         47.62583        40.18667        -0.51895
C         46.41805        39.48240        -0.52236
C         47.64192        41.60486        -0.55289
C         46.42607        42.29724        -0.65949
C         47.65464        44.45046        -0.32496
C         46.46116        43.77107        -0.94281
C         47.60102        45.83682        -0.08123
C         46.41859        46.56119        -0.29886
C         47.64719        48.71536         0.25089
C         46.45897        48.06028        -0.42246
C         47.55764        50.13987         0.42033
C         46.36830        50.80743         0.31598
C         50.23726        24.48197         0.46933
C         48.99627        25.15700         0.39989
C         50.22433        27.28832         0.60185
C         48.98499        26.57429         0.50325
C         50.21584        28.73916         0.43204
C         49.01367        29.40518         0.35212
C         50.26409        31.55112        -0.26632
C         48.94239        30.78318        -0.13223
C         50.18890        33.00567        -0.14703
C         48.97360        33.68121        -0.30382
C         50.15839        35.84795        -0.46144
C         48.96478        35.12179        -0.46126
C         50.20411        37.27452        -0.62073
C         48.91750        37.97477        -0.48839
C         50.18062        40.18055        -0.53176
C         48.90398        39.46655        -0.35034
C         50.14576        41.63123        -0.52120
C         48.90516        42.32278        -0.46088
C         50.11193        44.43730        -0.00707
C         48.88151        43.73234        -0.25621
C         50.09798        45.81109         0.33461
C         48.77308        46.48811         0.61019
C         50.05439        48.61546         0.85718
C         48.80864        47.99658         0.49896
C         51.41834        25.17919         0.66437
C         52.70887        27.34510         1.04143
C         51.43623        26.58803         0.71360
C         52.70487        28.76824         0.52919
C         51.48748        29.44884         0.30657
C         52.72323        31.58275         0.13170
C         51.50589        30.84745         0.08497
C         52.72166        33.00223         0.02529
C         51.43982        33.71712         0.11340
C         52.70932        35.89170        -0.44014
C         51.43752        35.22487        -0.08025
C         52.67680        37.30755        -0.66921
C         51.40106        38.00264        -0.59982
C         52.62814        40.18330        -0.83693
C         51.36320        39.45388        -0.61163
C         52.62654        41.68737        -0.81194
C         51.35750        42.37462        -0.48583
C         52.59210        44.43970         0.13072
C         51.35383        43.74760        -0.15865
C         52.55299        45.79671         0.58447
C         51.29369        46.49508         0.63209
C         51.21949        47.90013         0.95229
C         55.15370        27.31333         0.54453
C         53.99689        26.63111         0.71011
C         55.17969        28.75855         0.49661
C         53.93922        29.46848         0.43507
C         55.19308        31.60487         0.21788
C         53.95909        30.88499         0.25647
C         55.17482        33.03030         0.02514
C         53.92977        33.73056        -0.08045
C         55.16905        35.78205        -0.78536
C         53.90176        35.14758        -0.39943
C         55.16829        37.34176        -0.94657
C         53.89048        38.04697        -0.76235
C         55.11671        40.17973        -0.46213
C         53.91052        39.45859        -0.68207
C         55.11516        41.59082        -0.24255
C         53.94647        42.45055        -0.70117
C         55.01280        44.37676         0.50082
C         53.82418        43.75744         0.04976
C         54.96011        45.71721         0.97457
C         53.77182        46.41334         0.98435
C         56.38801        29.47649         0.43831
C         56.40037        30.86101         0.32381
C         56.39884        33.77541        -0.08000
C         56.41411        35.07746        -0.47456
C         56.39671        38.10359        -0.71834
C         56.35363        39.42827        -0.42752
C         56.25396        42.27433         0.23874
C         56.22889        43.62722         0.54137
O         31.08455        40.09617         2.47075
O         52.56529        40.97414        -2.10190
O         51.40451        34.64380         1.26590
O         48.82368        38.59018         0.84980
O         33.45890        26.48417         1.49341
O         55.18178        36.44173        -2.09457
O         49.58938        30.98254        -1.43722
O         35.15679        44.74014        -2.06835
O         40.66199        26.74101         2.03768
O         47.02430        37.82568        -2.13280
O         43.06667        22.08310         1.02359
O         37.19128        48.43349        -2.54865
O         41.95711        22.52814        -2.38677
O         43.27802        24.57636         1.80112
O         36.05522        42.46615         1.69438
O         34.57648        31.27686         2.46935
O         46.04550        34.08327        -1.72036
O         40.97556        31.33452         2.43308
O         27.85580        41.18896         2.41296
O         36.61480        38.87229         2.21126
O         54.31025        42.85533        -2.06190
H         53.96974        42.14437        -2.65600
O         46.65540        43.88529        -2.40972
H         46.66010        44.84278        -2.62679
O         52.69689        27.45725         2.51506
H         53.47912        27.99052         2.77204
O         32.42297        28.71715         2.39009
H         33.02839        28.03857         2.77094
O         30.12286        43.83841        -2.01207
H         29.32612        44.26604        -2.39312
O         35.40245        37.51440        -0.93778
H         34.57379        37.12945        -1.29462
O         44.37861        34.09475         2.14588
H         44.13540        33.29152         2.65572
O         46.69829        48.28598        -1.86999
H         46.69090        49.25705        -2.01298
O         47.83908        28.83809         2.32690
H         47.07581        28.34289         2.69440
O         36.70886        26.12972        -2.28806
H         36.92236        25.37199        -2.87415
O         32.66879        35.87837         2.67024
H         33.48498        36.21998         3.09422
O         48.51996        46.23639         2.04627
H         49.28043        46.60948         2.54163
O         27.41813        31.51238         1.01084
H         27.41815        30.54100         1.15540
O         40.74264        25.30602        -1.95531
H         41.19625        24.58023        -2.44263
O         30.09155        27.32575         1.74405
H         30.84165        27.81645         2.17287
O         36.59551        33.94213         2.88570
H         36.36015        33.04952         3.22224
O         30.59036        37.79968        -1.11322
H         29.81082        37.40784        -1.56304
O         40.42551        45.70994        -2.70565
H         40.26349        46.59348        -3.10037
O         30.98375        31.86435        -1.83212
H         31.83764        32.34791        -1.85375
O         47.94619        35.49850        -2.49507
H         47.32708        36.08155        -2.99108
H         27.12639        27.03332        -1.22997
H         26.18877        29.19885        -1.95496
H         26.11033        31.66164        -1.69873
H         25.91394        33.49858        -0.81066
H         25.87683        35.91128        -0.34401
H         25.81883        37.34242         1.10334
H         25.79978        39.58906         2.19472
H         25.89289        42.74478         2.13379
H         25.79914        44.83557         0.73380
H         26.90449        46.44211        -0.70255
H         28.93857        25.70951        -0.23693
H         29.01276        47.54883        -1.31701
H         32.82823        23.94321        -1.58195
H         30.70152        25.05573        -1.11196
H         32.68638        49.77004        -0.99047
H         30.59747        48.54535        -0.87675
H         34.50800        22.85961        -1.46801
H         34.34276        50.70974        -1.06374
H         36.64570        21.76243        -1.86390
H         36.40619        51.91187        -0.84837
H         40.37183        19.57099        -2.17046
H         38.26819        20.75715        -1.89008
H         40.10091        53.97893         0.30174
H         38.00721        52.80844        -0.23104
H         42.96578        19.51045        -1.96466
H         42.53839        53.97082         0.59835
H         44.95468        20.41494        -0.91668
H         44.69503        52.79631         0.60541
H         48.64452        22.47513         0.01440
H         46.53172        21.28123        -0.18244
H         48.45411        50.70943         0.70318
H         46.36556        51.89299         0.48036
H         50.27726        23.38599         0.42009
H         50.09809        49.70444         0.99961
H         52.34957        24.60789         0.77284
H         52.14134        48.44252         1.20097
H         56.10393        26.77293         0.41544
H         54.02933        25.53352         0.75443
H         55.88603        46.19988         1.31911
H         53.77166        47.45302         1.33760
H         57.33972        28.92734         0.48440
H         57.37100        31.37294         0.29127
H         57.35704        33.27079         0.10195
H         57.37303        35.58491        -0.64515
H         57.36639        37.59593        -0.81012
H         57.30018        39.96080        -0.26719
H         57.18523        41.72282         0.42989
H         57.13969        44.11785         0.91371
