         236
 CSIRO Nanostructure Databank - Neutral Graphene Oxide Data Set
C        -10.85010         0.77885         0.42575
C         -9.84496         1.39710         1.37676
C         -8.50906         0.65225         1.25524
C         -7.25636         1.42781         0.89134
C         -6.07420         0.68931         0.42834
C         -4.90233         1.46324         0.11759
C         -3.60855         0.74190         0.12212
C         -2.33519         1.53597        -0.12326
C         -1.35220         0.83214        -1.01981
C         -0.07725         1.45437        -1.16199
C          1.18933         0.64830        -0.89468
C          2.46981         1.40051        -1.26530
C          3.66339         0.67592        -0.63130
C          4.95933         1.40728        -0.51856
C          6.24076         0.65790        -0.68958
C          7.54975         1.41411        -0.70737
C          8.86597         0.63795        -0.58895
C          9.92969         1.38863         0.18737
C         11.07376         0.61806         0.62592
C         -9.73096         2.89993         1.26521
C         -8.60645         3.59054         0.86243
C         -7.43766         2.81451         0.37303
C         -6.26947         3.51462        -0.25493
C         -4.95808         2.82250        -0.18234
C         -3.75924         3.56485        -0.54095
C         -2.54766         2.92076        -0.65422
C         -1.30643         3.59851        -1.07379
C         -0.02657         2.84958        -1.01438
C          1.21370         3.58408        -0.94334
C          2.40942         2.87465        -0.91398
C          3.69291         3.59186        -0.82453
C          5.00376         2.88210        -0.78322
C          6.23799         3.54670        -0.22758
C          7.53541         2.85802        -0.35306
C          8.66560         3.51418         0.11177
C          9.87072         2.74303         0.36657
C         -8.49661         5.00923         0.90754
C         -7.39422         5.73895         0.38324
C         -6.36080         5.02952        -0.50704
C         -5.00402         5.70019        -0.44259
C         -3.83499         5.00983        -0.64464
C         -2.58296         5.85730        -0.79844
C         -1.29355         5.09643        -1.00362
C         -0.01905         5.79310        -0.73226
C          1.18818         5.05889        -0.83224
C          2.39704         5.77057        -0.67854
C          3.62351         5.00861        -0.39063
C          4.90888         5.75057        -0.11889
C          6.22104         5.02292         0.09308
C          7.51644         5.72305         0.34639
C          8.63757         4.92861         0.44229
C         -7.32028         7.11517         0.54129
C         -6.23240         7.90443        -0.15438
C         -4.95429         7.09729        -0.03945
C         -3.81043         7.51713         0.58163
C         -2.49688         6.91756         0.28843
C         -1.23758         7.74668         0.31733
C         -0.01915         7.15736        -0.33158
C          1.19535         7.86233        -0.25984
C          2.41093         7.17080        -0.46064
C          3.67444         7.87645        -0.45790
C          4.82718         7.15111        -0.52190
C          6.61593         8.05385         0.37529
C          7.47811         7.10800         0.85597
C         -6.15005         9.39493         0.14880
C         -5.06387        10.19699         0.24743
C         -3.71739         9.70753         0.56775
C         -2.46974        10.01382         0.14282
C         -1.25388         9.25033         0.71321
C          0.03482         9.95296         0.35372
C          1.23462         9.30051         0.03748
C          2.44825        10.00491        -0.04619
C          3.78807         9.38868        -0.36464
C          4.83668         9.79068         0.70343
C          6.04741         9.24522         1.00190
C        -10.86525        -0.54478         0.22728
C         -9.87869        -1.45293         0.97489
C         -8.51911        -0.77766         0.92717
C         -7.36858        -1.42800         0.47444
C         -6.10847        -0.71386         0.33813
C         -4.94783        -1.44100        -0.10477
C         -3.64216        -0.74896        -0.12021
C         -2.54167        -1.35055        -0.90862
C         -1.61760        -0.48004        -1.45078
C          0.25488        -1.57640        -1.77086
C          1.30158        -0.82626        -1.30247
C          2.51980        -1.53460        -0.91740
C          3.71118        -0.80746        -0.69042
C          4.93819        -1.48653        -0.42486
C          6.20376        -0.79010        -0.39707
C          7.43169        -1.44378        -0.14133
C          8.67647        -0.79029        -0.10263
C          9.85074        -1.50963         0.35515
C         11.04581        -0.73945         0.67855
C         -9.89059        -2.84370         0.45757
C         -8.73330        -3.50149        -0.20307
C         -7.40309        -2.81445         0.05757
C         -6.24711        -3.49389        -0.29077
C         -4.99612        -2.79615        -0.39237
C         -3.78779        -3.52892        -0.89955
C         -2.50725        -2.80914        -1.23853
C         -1.18083        -3.56220        -1.30848
C          0.06361        -2.99476        -1.52301
C          1.35376        -3.72614        -1.38438
C          2.54143        -2.95298        -0.93935
C          3.71573        -3.64929        -0.53604
C          4.88648        -2.89878        -0.24587
C          6.07882        -3.59181         0.24339
C          7.38863        -2.86179         0.29334
C          8.64682        -3.68402         0.11694
C          9.83956        -2.87574         0.54746
C         -8.66154        -4.96628         0.15012
C         -7.50999        -5.66347        -0.03444
C         -6.31892        -4.96545        -0.67292
C         -5.02380        -5.70755        -0.40245
C         -3.74128        -4.96754        -0.49889
C         -2.45353        -5.71366        -0.61955
C         -1.24838        -5.05483        -1.22102
C          0.00736        -5.90538        -1.20212
C          1.34459        -5.21900        -1.20345
C          2.50853        -5.86357        -0.53427
C          3.70331        -5.08030        -0.31094
C          4.87379        -5.73447         0.18050
C          6.07561        -5.05583         0.33849
C          7.30540        -5.72785         0.72732
C          8.51071        -5.05995         0.71862
C         -7.42771        -7.07087         0.28291
C         -6.23690        -7.75660         0.24448
C         -5.00910        -7.03220        -0.06746
C         -3.70407        -7.73020         0.11167
C         -2.54542        -7.23234        -0.73821
C         -1.23136        -7.94552        -0.44663
C         -0.04623        -7.30697        -0.69070
C          1.25789        -8.01474        -0.57504
C          2.47678        -7.22806        -0.30849
C          3.77313        -7.98887        -0.09425
C          4.73642        -7.13605         0.72665
C          6.04992        -7.83545         0.98873
C          7.22543        -7.14230         1.05509
C         -6.16745        -9.16924         0.58507
C         -4.99914        -9.84023         0.71190
C         -3.69853        -9.16451         0.53297
C         -2.47027        -9.94625         0.28849
C         -1.29561        -9.36091        -0.07378
C         -0.05895       -10.23971        -0.09700
C          1.26011        -9.48235        -0.23975
C          2.43959       -10.03951         0.45646
C          3.60859        -9.35193         0.55159
C          4.78978        -9.93563         1.15906
C          5.95562        -9.24377         1.30543
O          6.02698         4.00917         1.14457
O          6.65695        -3.03216         1.52909
O          1.68610        -4.64120        -2.49756
O         -7.58604         1.14626         2.29122
O          2.64818         1.31689        -2.69819
H          3.35309         1.96054        -2.94798
O         -6.82310         5.19956        -1.87648
H         -7.39698         4.42007        -2.07504
O         -6.54973        -4.98734        -2.12199
H         -6.51662        -5.92108        -2.42040
O          4.54194         3.37803        -2.07171
O          4.16364         1.14090         0.67257
O          1.17838         0.57450         0.56739
H          0.31463         0.91315         0.90587
O          6.02685         7.77635        -0.88483
O         -1.36907         4.41984        -2.30865
O          4.33038        -8.19482        -1.41365
H          3.63211        -8.63313        -1.95215
O         -7.26661         2.80265        -1.09096
O         -3.81333         8.60060         1.46078
O          4.01023         5.37347         0.97819
O        -10.32873        -1.53375         2.35480
H        -10.48624        -0.60571         2.67559
O         -6.58605         7.93674        -1.57400
H         -6.69733         7.00379        -1.88756
O        -10.32492         1.14731         2.73852
H         -9.57336         1.36413         3.33493
O         -1.64811         1.69587         1.16901
H         -2.01172         0.98955         1.75666
O         -0.77717        -5.73608        -2.43403
O         -0.78200        -0.95568        -2.46289
O          6.86982         1.06402        -1.97147
O         -2.89054        -7.52882        -2.11411
H         -2.19068        -7.11983        -2.67982
O         -2.75858         6.66110        -2.00318
H         -2.63170         6.05102        -2.76471
O         -2.84090        -5.17697         0.67102
O          4.25255         9.93902        -1.62540
H          5.10214         9.48791        -1.83001
O          1.50641        -9.05411        -1.62443
O         -1.59490         6.81244         1.42253
O         -8.93202        -3.42185        -1.66698
H         -8.16499        -3.89253        -2.08051
O          9.41005         0.51877        -1.93865
H          8.63441         0.42142        -2.53945
O         -3.37827        -0.19096         1.24016
O         -0.03300       -11.04831         1.08613
H         -0.19643       -10.47539         1.86333
O          4.08667        -6.97755         2.02620
H          4.67409        -6.43438         2.59315
O         -3.45986        -3.24244        -2.29642
O         -1.31025         9.31976         2.15774
H         -1.63597         8.44426         2.47549
O         -3.41503        -8.05399         1.49482
O          8.76412        -3.88243        -1.33837
H          9.63631        -4.29225        -1.51771
H         11.92809        -1.29361         1.03202
H         11.96907         1.16405         0.96045
H         10.71576         3.25964         0.84796
H          9.58751         5.38421         0.76071
H          8.07194         7.32261         1.75838
H          6.61303         9.68516         1.84027
H          4.55282        10.67293         1.30236
H          2.42770        11.09310         0.12456
H          0.06468        11.03618         0.55038
H         -2.30108        10.83934        -0.56298
H         -5.21432        11.28868         0.20387
H         -7.11602         9.90241        -0.01507
H         -8.10546         7.63317         1.11508
H         -9.31337         5.57528         1.38147
H        -10.59853         3.46919         1.63302
H        -11.57506         1.43309        -0.08148
H        -11.60158        -1.00414        -0.44852
H        -10.77677        -3.45341         0.69272
H         -9.56227        -5.47304         0.53073
H         -8.34457        -7.58085         0.61566
H         -7.12039        -9.69676         0.74121
H         -4.99892       -10.91704         0.93826
H         -2.48180       -11.02205         0.52304
H         -0.13403       -10.95084        -0.96187
H          2.33435       -11.03259         0.91969
H          4.73931       -10.99267         1.46171
H          6.85038        -9.75131         1.69682
H          8.15854        -7.66909         1.30935
H          9.42858        -5.60677         0.98797
H         10.74386        -3.38728         0.91245
