         600
 CSIRO Nanostructure Databank - Neutral Graphene Oxide Data Set
C         22.95979        27.48724        -0.07667
C         22.97871        28.85514         0.11593
C         23.05299        31.77089         0.52278
C         23.08122        33.15881         0.79556
C         23.03895        36.04017         1.65664
C         23.08802        37.39337         1.64830
C         23.10469        40.35332         1.51924
C         23.12379        41.69358         1.68358
C         23.28570        44.62963         2.27433
C         23.28708        46.01957         2.24291
C         25.34303        24.63026        -0.35903
C         24.16481        25.33415        -0.31284
C         25.41116        27.43196        -0.01957
C         24.16784        26.74887        -0.13811
C         25.42478        28.84520         0.18678
C         24.19915        29.56205         0.26185
C         25.47347        31.62002         0.78948
C         24.22415        30.98917         0.53566
C         25.51004        33.00597         1.38168
C         24.23393        33.79561         1.19489
C         25.56179        35.96457         1.41445
C         24.26230        35.22011         1.59289
C         25.54783        37.44340         1.31331
C         24.32071        38.15183         1.50361
C         25.57174        40.27013         1.39078
C         24.32671        39.56237         1.50714
C         25.60183        41.68423         1.48896
C         24.40315        42.39424         2.06867
C         25.53893        44.56158         1.33959
C         24.39694        43.88874         1.84033
C         25.51160        45.97659         1.24483
C         24.40751        46.71510         1.73869
C         25.58787        48.83689         1.34793
C         24.46309        48.15274         1.74513
C         27.86787        23.14041        -0.41135
C         27.84438        24.55793        -0.31409
C         26.60735        25.28641        -0.25566
C         27.88542        27.39755        -0.02977
C         26.63638        26.70062        -0.09715
C         27.89886        28.81858         0.15802
C         26.67966        29.52826         0.30242
C         27.94429        31.63025         0.65563
C         26.69063        30.93230         0.60003
C         27.93845        33.07641         0.76690
C         26.75144        33.76418         0.96529
C         27.99901        35.95882         0.86916
C         26.68349        35.24373         0.69608
C         28.00130        37.36258         0.93277
C         26.75313        38.11418         1.07140
C         27.98970        40.26621         0.96347
C         26.78097        39.55001         1.11458
C         28.00370        41.67273         1.00706
C         26.78604        42.39401         1.21710
C         27.95535        44.49996         0.73608
C         26.77379        43.83196         1.07684
C         27.94261        45.92996         0.39301
C         26.63475        46.71200         0.65153
C         27.93836        48.82891         0.47780
C         26.73063        48.16419         0.82462
C         27.98544        50.25245         0.39362
C         30.30685        23.12012        -0.46868
C         29.05442        22.44748        -0.47543
C         30.31925        24.53946        -0.37781
C         29.08799        25.25848        -0.28078
C         30.35816        27.38533        -0.17289
C         29.10581        26.68230        -0.14938
C         30.36655        28.82154        -0.00997
C         29.15100        29.51837         0.19937
C         30.40136        31.65217         0.39753
C         29.15667        30.94009         0.42261
C         30.40887        33.08150         0.52119
C         29.19459        33.79362         0.65277
C         30.45298        35.91835         0.79094
C         29.20813        35.22058         0.77298
C         30.44112        37.34012         0.91979
C         29.24534        38.05801         0.92113
C         30.44938        40.28162         1.32626
C         29.27984        39.54893         0.64413
C         30.48188        41.72287         0.85612
C         29.24266        42.40728         0.84917
C         30.43682        44.53524         0.49035
C         29.21442        43.81427         0.68617
C         30.43011        45.97014         0.37169
C         29.20036        46.68347         0.36782
C         30.40606        48.81502         0.13512
C         29.17160        48.09815         0.29350
C         30.40236        50.23561         0.04265
C         29.15917        50.92383         0.15760
C         32.76621        20.28659        -0.59361
C         31.57546        20.97966        -0.57734
C         32.78634        23.10672        -0.58001
C         31.54798        22.39635        -0.54312
C         32.79468        24.53222        -0.54966
C         31.56460        25.25376        -0.42332
C         32.82144        27.42937        -0.67634
C         31.56051        26.67149        -0.34757
C         32.84769        28.83839        -0.13337
C         31.61401        29.53255         0.01556
C         32.87168        31.65290         0.20739
C         31.62293        30.94614         0.22743
C         32.88384        33.07091         0.29635
C         31.65728        33.79204         0.46438
C         32.90879        35.92874         0.39320
C         31.67230        35.20219         0.58819
C         32.91145        37.31625         0.48479
C         31.73767        38.04967         0.97535
C         32.94622        40.29630         0.62598
C         31.77362        39.54498         1.12305
C         32.92690        41.66426         0.47108
C         31.67761        42.40547         0.60263
C         32.90280        44.54224         0.25504
C         31.66809        43.82727         0.43109
C         32.89511        45.96115         0.14852
C         31.65707        46.67825         0.20667
C         32.87414        48.80915        -0.10390
C         31.64613        48.10051         0.07300
C         32.86801        50.23366        -0.23444
C         31.63591        50.94733        -0.15968
C         32.84415        53.04008        -0.49978
C         31.66437        52.36172        -0.29046
C         35.24538        18.85107        -0.30454
C         35.26194        20.23604        -0.55716
C         34.01295        20.96450        -0.59449
C         35.27234        23.07723        -0.70785
C         34.01932        22.37973        -0.62581
C         35.26378        24.49161        -0.70850
C         34.05475        25.22460        -0.60120
C         35.32065        27.32130        -0.30972
C         34.09524        26.64979        -0.48208
C         35.33964        28.73085         0.23768
C         34.06660        29.50975         0.00352
C         35.35538        31.63035         0.10042
C         34.10016        30.92742         0.12326
C         35.36073        33.05238         0.12524
C         34.12853        33.77563         0.21319
C         35.38517        35.88051         0.09461
C         34.14002        35.19483         0.18224
C         35.38039        37.33896        -0.10465
C         34.09480        38.08668         0.10424
C         35.29882        40.24825        -0.31324
C         34.24789        39.53458         0.55194
C         35.36697        41.71621         0.01647
C         34.16146        42.40140         0.20857
C         35.36443        44.54040        -0.00705
C         34.14096        43.83067         0.17431
C         35.35746        45.96645        -0.09672
C         34.12283        46.67669        -0.02936
C         35.34198        48.80735        -0.34168
C         34.11280        48.09848        -0.15452
C         35.33727        50.22797        -0.49310
C         34.09552        50.94237        -0.43800
C         35.31966        53.06586        -0.82894
C         34.08647        52.35725        -0.58462
C         35.33804        54.47206        -1.01346
C         37.65618        18.79193        -0.47711
C         36.43315        18.14864        -0.23363
C         37.75698        20.17984        -0.74817
C         36.51483        20.91861        -0.71354
C         37.75588        23.05645        -0.81043
C         36.50424        22.34482        -0.78703
C         37.77855        24.46242        -0.79899
C         36.52105        25.24681        -1.03937
C         37.78818        27.33360        -0.37302
C         36.54266        26.64286        -0.46506
C         37.79796        28.77866        -0.27267
C         36.59727        29.49456        -0.10115
C         37.83168        31.63795        -0.13191
C         36.59233        30.91199        -0.03980
C         37.83039        33.04136         0.00535
C         36.60560        33.76710         0.10576
C         37.88336        35.96109         0.40038
C         36.60209        35.19169         0.13550
C         37.85577        37.41768         0.01166
C         36.64447        38.11325        -0.07269
C         37.83007        40.24423        -0.23616
C         36.62073        39.52033        -0.19863
C         37.82793        41.68521        -0.25546
C         36.59785        42.40580        -0.12312
C         37.82926        44.53513        -0.26759
C         36.59810        43.83071        -0.11547
C         37.82104        45.96004        -0.33385
C         36.58596        46.67232        -0.26922
C         37.80614        48.80091        -0.56530
C         36.57719        48.09517        -0.38892
C         37.79652        50.21664        -0.72689
C         36.55984        50.92987        -0.70330
C         37.76978        53.04944        -1.17016
C         36.55150        52.35286        -0.89651
C         37.74739        54.45857        -1.39259
C         36.51008        55.14404        -1.28549
C         40.72482        16.02137        -2.73978
C         39.59341        16.50938        -2.12536
C         40.19333        18.92836        -1.91131
C         39.50614        17.80748        -1.51636
C         40.27449        20.24505        -1.29739
C         39.01499        20.90982        -0.96230
C         40.23467        23.07778        -1.04074
C         38.98436        22.30859        -0.90990
C         40.21054        24.48463        -0.61669
C         39.01123        25.17476        -0.61320
C         40.25437        27.33149        -0.51072
C         39.00927        26.62677        -0.46770
C         40.25684        28.76334        -0.55438
C         39.03604        29.48127        -0.41935
C         40.28296        31.58065        -0.59342
C         39.06030        30.90861        -0.37083
C         40.34667        33.03874        -0.40217
C         39.10730        33.78377        -0.01781
C         40.26671        35.95672        -0.35261
C         39.10818        35.26242        -0.11927
C         40.30755        37.40402        -0.30925
C         39.07497        38.11865        -0.15990
C         40.30251        40.24471        -0.39176
C         39.06846        39.53798        -0.27013
C         40.29813        41.67176        -0.42316
C         39.05707        42.38636        -0.34460
C         40.29311        44.52244        -0.46637
C         39.05767        43.81664        -0.36236
C         40.28580        45.95115        -0.51796
C         39.05252        46.66600        -0.47848
C         40.27606        48.79362        -0.72967
C         39.04551        48.08873        -0.58988
C         40.26592        50.21374        -0.91166
C         39.02826        50.91648        -0.92775
C         40.23265        52.98515        -1.46524
C         39.01637        52.32348        -1.17984
C         40.17897        54.37796        -1.92551
C         38.95490        55.16236        -1.75316
C         40.22274        57.25299        -2.03754
C         39.01069        56.54677        -1.95455
C         43.20321        16.02739        -2.40884
C         41.98497        16.71497        -2.64886
C         43.01028        18.83124        -1.81404
C         42.00845        18.11925        -2.51763
C         42.84019        20.20537        -1.37175
C         41.54212        20.86772        -1.26319
C         42.78222        23.02464        -0.63608
C         41.56001        22.34054        -1.11016
C         42.75440        24.44312        -0.43559
C         41.46359        25.16768        -0.16128
C         42.71349        27.32263        -0.63579
C         41.48923        26.63354        -0.51173
C         42.70537        28.73546        -0.78404
C         41.49595        29.45656        -0.69819
C         42.74494        31.60462        -0.91219
C         41.50891        30.89405        -0.78378
C         42.76694        33.04827        -1.35479
C         41.46853        33.79142        -1.04345
C         42.77020        35.97758        -0.83448
C         41.47385        35.27074        -0.87992
C         42.76518        37.36569        -0.66430
C         41.51797        38.09341        -0.50050
C         42.76521        40.23808        -0.56012
C         41.53030        39.52577        -0.47959
C         42.76766        41.66079        -0.56202
C         41.53040        42.37921        -0.50438
C         42.76533        44.52211        -0.55463
C         41.52607        43.80829        -0.51867
C         42.75626        45.94879        -0.57847
C         41.51807        46.66304        -0.59912
C         42.75239        48.80077        -0.75261
C         41.51197        48.08487        -0.69467
C         42.74049        50.22286        -0.94570
C         41.49905        50.91860        -1.07063
C         42.73080        53.04226        -1.42824
C         41.48380        52.31828        -1.35788
C         42.75063        54.45476        -1.61703
C         41.52412        55.15474        -2.01408
C         42.68101        57.31505        -1.70268
C         41.46118        56.61403        -1.92366
C         44.29198        16.72591        -1.93023
C         45.34190        18.78979        -1.00607
C         44.21098        18.10260        -1.56511
C         45.27304        20.19192        -0.78262
C         44.01720        20.89246        -0.94019
C         45.17585        22.94893        -0.05850
C         43.96461        22.28387        -0.55810
C         45.17289        24.48022         0.02437
C         43.93376        25.18004        -0.30939
C         45.20272        27.28264        -0.45114
C         43.97460        26.60952        -0.48286
C         45.27821        28.71009        -0.81427
C         43.95935        29.46445        -1.00663
C         45.22150        31.63469        -0.82880
C         43.97413        30.93280        -0.90159
C         45.22301        33.08215        -0.80905
C         44.00962        33.80618        -0.92801
C         45.23321        35.93786        -0.71809
C         43.99523        35.22325        -0.84734
C         45.22979        37.36843        -0.67473
C         44.00482        38.09073        -0.65169
C         45.23929        40.22692        -0.66861
C         44.00356        39.51482        -0.61200
C         45.23628        41.66703        -0.64190
C         44.01189        42.37545        -0.59639
C         45.22810        44.54225        -0.48996
C         44.00279        43.81429        -0.56357
C         45.20474        45.95148        -0.42256
C         43.98768        46.66652        -0.53359
C         45.21824        48.83072        -0.64906
C         43.97724        48.10409        -0.62107
C         45.20858        50.24689        -0.84433
C         43.96723        50.94134        -1.00311
C         45.18890        53.09362        -1.14578
C         43.95904        52.35861        -1.19356
C         45.17917        54.51558        -1.23794
C         43.93176        55.20856        -1.44930
C         43.86552        56.64108        -1.51788
C         47.68268        18.74270        -0.32531
C         46.54458        18.08591        -0.71925
C         47.69315        20.15805        -0.19724
C         46.48014        20.87385        -0.38952
C         47.66970        23.00979         0.01427
C         46.48414        22.28780        -0.17054
C         47.66750        24.47199         0.06470
C         46.45051        25.19551        -0.03066
C         47.67211        27.33247        -0.10881
C         46.44616        26.59808        -0.19489
C         47.67019        28.77458        -0.18120
C         46.47718        29.49156        -0.48981
C         47.65153        31.66619        -0.37908
C         46.44529        30.92248        -0.58652
C         47.67876        33.06254        -0.48382
C         46.45566        33.79526        -0.65909
C         47.70084        35.94685        -0.53799
C         46.46004        35.21959        -0.65191
C         47.70815        37.35683        -0.59864
C         46.46581        38.08989        -0.67981
C         47.73148        40.23117        -1.03271
C         46.45489        39.49739        -0.73218
C         47.70417        41.68547        -0.63034
C         46.48826        42.38948        -0.59732
C         47.71096        44.53304        -0.51129
C         46.48976        43.82528        -0.49703
C         47.72811        45.98085        -0.43705
C         46.45700        46.70303        -0.06026
C         47.66679        48.85342        -0.55830
C         46.44722        48.14855        -0.49410
C         47.66848        50.27356        -0.71482
C         46.43614        50.96921        -0.85220
C         47.65112        53.12177        -0.92858
C         46.42893        52.40021        -0.97771
C         47.60735        54.53689        -1.01426
C         46.41268        55.21065        -1.15543
C         50.12460        20.17512         0.35281
C         48.90602        20.86651         0.11636
C         50.14329        22.98832         0.28945
C         48.91902        22.29347         0.12635
C         50.18278        24.46447        -0.02044
C         48.87408        25.19536         0.10712
C         50.13221        27.35589         0.26004
C         48.89275        26.61999         0.08908
C         50.08750        28.77955         0.23822
C         48.89241        29.47300         0.01322
C         50.16570        31.60306        -0.44016
C         48.89614        30.97831         0.14889
C         50.15852        33.10404        -0.25200
C         48.93667        33.79414        -0.35456
C         50.15446        35.93378        -0.22579
C         48.93043        35.22244        -0.37403
C         50.16036        37.36481        -0.26607
C         48.94847        38.08043        -0.49024
C         50.18147        40.21262        -0.47511
C         48.97205        39.49475        -0.59322
C         50.16195        41.65092        -0.54411
C         48.94584        42.37631        -0.54037
C         50.17896        44.53019        -0.52900
C         48.95782        43.82013        -0.54424
C         50.19138        45.99424        -0.87428
C         48.90462        46.69536        -0.52580
C         50.13621        48.84412        -0.49646
C         48.91979        48.14246        -0.50051
C         50.14148        50.28175        -0.54316
C         48.90819        50.99098        -0.69184
C         50.14243        53.09367        -0.72922
C         48.90514        52.41242        -0.78458
C         51.29865        20.85361         0.57107
C         52.59956        22.96609         0.71903
C         51.35128        22.27816         0.52553
C         52.57742        24.43568         0.85482
C         51.30659        25.20135         0.66452
C         52.59744        27.33305         0.69681
C         51.36304        26.67129         0.50379
C         52.61845        28.80250         0.80536
C         51.31057        29.55929         0.55056
C         52.62052        31.62893         0.17853
C         51.40810        30.95510         0.12445
C         52.63453        33.08849         0.05493
C         51.38440        33.79642        -0.08080
C         52.59756        35.94017         0.16247
C         51.38000        35.22249        -0.04846
C         52.59347        37.36592         0.17211
C         51.38179        38.08016        -0.08799
C         52.62090        40.18847         0.07579
C         51.40140        39.50046        -0.18923
C         52.71331        41.63574        -0.20085
C         51.41844        42.39440        -0.56853
C         52.61890        44.55154        -0.13191
C         51.41391        43.85549        -0.40675
C         52.61446        46.00997        -0.10778
C         51.42143        46.72619        -0.40595
C         52.60749        48.86149        -0.16766
C         51.39485        48.12822        -0.36392
C         52.61247        50.28709        -0.22138
C         51.36404        51.00023        -0.45152
C         51.33293        52.40815        -0.55943
C         54.97025        22.99400         1.36584
C         53.80195        22.31313         1.09429
C         55.13266        24.39827         0.98234
C         53.84969        25.18074         0.68128
C         55.09483        27.33253         0.77974
C         53.84275        26.64955         0.75374
C         55.13134        28.77829         0.66721
C         53.88340        29.52292         0.60353
C         55.13898        31.61649         0.24250
C         53.85583        30.89796         0.39746
C         55.12133        33.11997         0.19581
C         53.82082        33.81421         0.22224
C         55.04210        35.95601         0.58689
C         53.82487        35.23933         0.33163
C         55.02698        37.36427         0.67665
C         53.79734        38.06983         0.45143
C         54.95297        40.22142         0.96661
C         53.76776        39.49237         0.47388
C         54.94739        41.73126         0.96468
C         53.80687        42.43174         0.33627
C         54.96110        44.54964         0.80617
C         53.78610        43.82094         0.26728
C         54.97831        46.04765         0.71340
C         53.78564        46.73634         0.18835
C         55.05310        48.86742         0.26508
C         53.82138        48.15302         0.08491
C         55.01989        50.26592         0.20156
C         53.83008        50.95927        -0.03154
C         57.49427        24.58364         1.82038
C         56.31984        25.20534         1.31010
C         57.60557        27.26629         0.98676
C         56.30110        26.58472         1.01850
C         57.63327        28.79365         0.81183
C         56.34198        29.49385         0.72964
C         57.56481        31.63478         0.85591
C         56.38331        30.92225         0.65675
C         57.65115        33.10730         0.48753
C         56.33801        33.85805         0.57595
C         57.51911        35.97663         1.00628
C         56.29647        35.22915         0.73559
C         57.49166        37.39763         1.08118
C         56.25301        38.10940         0.91923
C         57.45093        40.26086         1.20719
C         56.24329        39.50970         1.02576
C         57.45593        41.70446         1.18056
C         56.24640        42.44045         1.00140
C         57.47178        44.56807         1.00755
C         56.25345        43.83083         0.91068
C         57.47621        46.00628         0.88268
C         56.27751        46.74597         0.68610
C         57.56000        48.80496         0.50295
C         56.30388        48.13890         0.48269
C         58.66643        25.28472         2.02503
C         59.93568        27.39560         1.81294
C         58.77159        26.64178         1.62551
C         59.95623        28.78846         1.64057
C         58.81837        29.51882         1.28051
C         59.87100        31.72016         1.69643
C         58.76919        30.95980         1.28169
C         59.83891        33.12695         1.70021
C         58.77177        33.83789         1.18136
C         59.91213        36.02349         1.50081
C         58.73481        35.28203         1.22268
C         59.89468        37.39943         1.54446
C         58.69292        38.12334         1.33689
C         59.87925        40.31322         1.51994
C         58.67846        39.56445         1.36107
C         59.88238        41.68638         1.48257
C         58.67968        42.42500         1.29199
C         59.90944        44.61015         1.27269
C         58.69048        43.86389         1.19822
C         59.92424        45.97434         1.12910
C         58.71631        46.70391         0.91682
C         58.72999        48.10953         0.72800
O         54.68018        45.36340         2.00014
O         40.97206        22.95544        -2.32778
O         38.73973        17.91406        -0.34150
O         44.73427        28.97865        -2.15554
O         45.01210        23.63788         1.22615
O         54.64020        40.99559         2.20028
O         32.07373        38.70226         2.31239
O         55.29260        32.31399        -1.05992
O         25.20493        35.46518         2.73380
O         51.81122        29.32245         1.91304
O         51.71535        24.80617         2.00856
O         54.65776        24.64772        -0.39998
O         40.94580        18.82752        -3.10452
O         52.36902        41.94145        -1.59467
O         41.09190        34.62840        -2.18575
O         40.87022        54.59588        -3.19425
O         57.89299        27.88898        -0.30971
O         34.53463        37.73732        -1.26080
O         27.01710        46.25777        -0.69222
O         40.10715        33.36968         1.01945
O         35.39158        28.54741         1.70351
H         35.46750        29.43810         2.10762
O         50.14146        31.33809        -1.87140
H         50.91696        31.77856        -2.27800
O         32.75760        27.62022        -2.15080
H         31.90075        28.05628        -2.34865
O         50.54323        24.55680        -1.44767
H         49.83846        24.11280        -1.96522
O         34.76571        39.47763         1.90887
H         34.02512        39.16314         2.48111
O         46.45170        46.74090         1.42054
H         47.25504        47.23030         1.69957
O         26.33225        35.37147        -0.73276
H         27.04027        34.93324        -1.25140
O         38.02369        35.95673         1.86982
H         38.36823        35.07561         2.13207
O         50.27208        46.02926        -2.35318
H         49.48440        45.55742        -2.69881
O         47.80918        40.26056        -2.51565
H         48.66837        40.67271        -2.75110
O         41.36429        25.13462         1.32463
H         42.23575        25.41017         1.68354
O         24.51880        42.23774         3.53032
H         24.58564        41.27670         3.71609
O         25.65365        32.79453         2.84020
H         25.61886        33.69551         3.24647
O         30.16681        40.34309         2.74007
H         30.72404        39.65346         3.17383
O         29.51448        39.66945        -0.79103
H         28.73400        39.30683        -1.26014
O         42.87602        32.95281        -2.80822
H         42.38565        33.72778        -3.17515
O         57.97782        33.11597        -0.95148
H         57.18467        32.74221        -1.40975
O         48.94125        31.27047         1.57733
H         48.21630        30.77866         2.01578
O         36.46595        25.45077        -2.51292
H         35.62474        25.91967        -2.70604
O         34.88699        40.25861        -1.70468
H         34.82222        39.31718        -2.00255
H         22.00145        26.95701        -0.17342
H         22.02292        29.39287         0.17438
H         22.08643        31.31854         0.26642
H         22.14211        33.72445         0.70457
H         22.06520        35.53336         1.72196
H         22.14356        37.94856         1.73318
H         22.14608        39.85040         1.32702
H         22.18307        42.26266         1.65244
H         22.41654        44.10351         2.69321
H         22.42477        46.58387         2.62525
H         25.30086        23.54113        -0.49079
H         23.20257        24.80993        -0.40434
H         25.60090        49.93134         1.44442
H         23.59607        48.70653         2.13294
H         26.92842        22.57300        -0.42750
H         27.05625        50.83028         0.48694
H         29.01623        21.35281        -0.54431
H         29.12675        52.01792         0.07728
H         32.72812        19.19029        -0.61959
H         30.63924        20.40715        -0.57689
H         32.80556        54.13222        -0.60137
H         30.73372        52.94082        -0.23517
H         34.30337        18.31918        -0.12651
H         34.40740        55.05072        -0.95407
H         36.44009        17.07604        -0.00202
H         36.47076        56.23072        -1.43584
H         40.73554        14.96741        -3.05751
H         38.75141        15.82195        -1.95389
H         40.19210        58.35184        -2.07183
H         38.08441        57.13711        -1.93688
H         43.26189        14.94196        -2.57041
H         42.66683        58.41464        -1.69042
H         45.22818        16.17645        -1.77366
H         44.78129        57.22896        -1.37345
H         48.59068        18.15757        -0.13398
H         46.58172        16.99460        -0.82264
H         48.53502        55.12203        -0.96983
H         46.43414        56.30618        -1.22064
H         50.14386        19.07806         0.37074
H         50.17793        54.18785        -0.80940
H         52.21425        20.27734         0.75638
H         52.26499        52.98625        -0.51100
H         55.81600        22.45054         1.80829
H         53.79414        21.22651         1.25996
H         55.93854        50.84980         0.34599
H         53.86982        52.05610        -0.06060
H         57.46439        23.51520         2.07287
H         57.61077        49.89004         0.34261
H         59.54221        24.78274         2.46043
H         60.83617        26.89510         2.19758
H         60.88706        29.31611         1.88893
H         60.77209        31.22338         2.07819
H         60.68928        33.65430         2.15402
H         60.86721        35.50313         1.64894
H         60.83486        37.92835         1.74494
H         60.83698        39.79508         1.65591
H         60.84035        42.21014         1.59411
H         60.86220        44.08856         1.43162
H         60.87588        46.52370         1.17087
H         59.69161        48.64221         0.75140
