         349
 CSIRO Nanostructure Databank - Neutral Graphene Oxide Data Set
C          1.20967         1.99187        -0.61038
C          1.16132         3.38675        -0.48873
C          2.39537         1.29767        -0.40545
C          2.31076         4.11866        -0.12940
C          1.09167         6.34929        -0.02741
C          1.11333         7.74741        -0.07925
C          2.28454         5.59960        -0.03718
C          2.31915         8.46285        -0.08756
C          1.15195        10.76221        -0.30172
C          1.19594        12.10110        -0.16175
C          2.43084         9.96107        -0.38279
C          2.45781        12.84010        -0.01554
C          1.42523        14.95898        -0.77396
C          1.54971        16.27182        -1.28882
C          2.48547        14.29284        -0.18066
C          2.75638        16.95157        -1.27109
C          2.93695        18.15432        -2.03321
C          3.58009         1.99701        -0.05448
C          3.51117         3.40909         0.09632
C          4.82499         1.30687         0.09137
C          4.72597         4.15797         0.57313
C          3.50216         6.30956        -0.00950
C          3.52754         7.72480        -0.00418
C          4.78554         5.51946        -0.14996
C          4.80369         8.44112         0.01630
C          3.49345        10.62905         0.50506
C          3.60765        12.13377         0.23162
C          4.81986         9.88985         0.37137
C          4.89400        12.84133         0.50571
C          3.68924        15.06702         0.19283
C          3.86570        16.45549        -0.43729
C          4.93655        14.34756         0.62788
C          5.22482        17.04120        -0.60676
C          4.14177        18.78665        -2.05987
C          5.30014        18.26155        -1.37187
C          6.04969         1.99011         0.28792
C          6.02891         3.39563         0.41706
C          7.31014         1.26567         0.25717
C          7.27494         4.11874         0.63339
C          5.99600         6.31463         0.26196
C          5.98978         7.75689        -0.04066
C          7.29560         5.61415         0.47991
C          7.28583         8.42174        -0.25854
C          6.11021        10.65672         0.24834
C          6.12750        12.11313         0.24476
C          7.31681         9.92713        -0.24980
C          7.38245        12.83305        -0.15689
C          6.27608        15.15251         0.76592
C          6.36737        16.49597        -0.00905
C          7.47226        14.23248         0.44148
C          7.60096        17.26557        -0.05063
C          6.49717        18.95710        -1.46754
C          7.65895        18.50447        -0.79603
C          8.54295         1.88895         0.31699
C          8.59072         3.35272         0.53561
C          9.80809         1.21145         0.21912
C          9.80557         4.07831         0.17891
C          8.55060         6.31010         0.12473
C          8.55694         7.66904        -0.14174
C          9.70299         5.47752        -0.37930
C          9.79967         8.39489        -0.28421
C          8.61303        10.57944        -0.10866
C          8.61846        12.01780         0.31660
C          9.78921         9.83081        -0.20108
C          9.90016        12.71891        -0.06523
C          8.71024        14.65637         0.80216
C          8.81426        16.92649         0.61709
C          9.96090        14.04162         0.35847
C         10.04590        17.58635         0.38803
C          8.83719        19.28351        -0.87188
C         10.06131        18.82398        -0.34711
C         11.01561         1.90042         0.26391
C         11.01932         3.36809         0.18804
C         12.29155         1.23791         0.16843
C         12.24206         4.06236         0.21675
C         11.03372         6.23116        -0.44573
C         11.04898         7.71178        -0.30001
C         12.31534         5.46849        -0.19312
C         12.26970         8.40977        -0.18209
C         11.05055        10.52472        -0.20771
C         11.05618        11.93312        -0.37274
C         12.28357         9.83826        -0.13896
C         12.29171        12.51029        -0.73732
C         11.19498        14.78205         0.45208
C         11.31152        16.97348         0.68451
C         12.32207        14.58767        -0.31131
C         12.52048        17.43320         0.14740
C         11.29819        19.50024        -0.49262
C         12.53169        18.84199        -0.25261
C         13.48879         1.92450         0.32191
C         13.42304         3.35119         0.81326
C         14.77107         1.32215         0.18402
C         14.70359         4.13374         0.72462
C         13.58132         6.23139         0.06507
C         13.56708         7.73563        -0.00277
C         14.58190         5.59979         1.02746
C         14.70746         8.49619         0.55127
C         13.51082        10.58303        -0.03858
C         13.52221        11.95271        -0.36000
C         14.73883         9.92186         0.38516
C         14.84894        12.71314        -0.46274
C         13.61996        15.20892        -0.20058
C         13.70151        16.59235        -0.04048
C         14.80525        14.32806        -0.52910
C         14.94352        17.26678        -0.51350
C         13.75346        19.52462        -0.32681
C         14.99615        18.77601        -0.50183
C         15.96076         2.03518         0.34862
C         15.93548         3.48058         0.61376
C         17.22262         1.37144         0.26656
C         17.14709         4.17839         0.85192
C         15.88397         6.36402         1.00753
C         15.88008         7.76125         0.93369
C         17.12281         5.60837         1.18334
C         17.11771         8.51468         1.03413
C         15.88171        10.68802         0.63349
C         15.81266        12.21477         0.63948
C         17.00861         9.99098         1.36700
C         17.18000        12.90908         0.52423
C         16.14824        15.01099        -0.42278
C         16.31238        16.54447        -0.54361
C         17.30045        14.22744         0.11733
C         17.39108        17.21910         0.28380
C         16.31957        19.37331        -0.36201
C         17.45395        18.66298         0.05657
C         18.42393         2.03399         0.47410
C         18.42256         3.46081         0.85187
C         19.69185         1.38325         0.41995
C         19.73720         4.24217         0.64786
C         18.44282         6.41481         1.05128
C         18.32831         7.88105         0.88535
C         19.66061         5.72673         0.54911
C         19.55860         8.63864         0.73882
C         18.34902        10.72794         1.33403
C         18.39446        12.20895         1.00889
C         19.59203         9.96725         1.05059
C         19.71906        12.83982         0.74842
C         18.52037        14.96883         0.38533
C         18.51414        16.39629         0.57437
C         19.73813        14.26570         0.61283
C         19.71965        16.95918         1.09716
C         18.68952        19.40993         0.02368
C         19.84374        19.01865         0.69613
C         20.89457         2.05917         0.23345
C         20.89495         3.52127         0.05494
C         22.12939         1.29654         0.34808
C         21.93458         4.27539        -0.47089
C         20.71155         6.45531         0.09111
C         20.75872         7.97242         0.09612
C         21.90680         5.78553        -0.53528
C         22.06734         8.47445         0.75734
C         20.90108        10.67654         1.29991
C         20.90462        12.12847         0.90560
C         22.10972         9.96980         0.74976
C         22.17241        12.78263         0.81352
C         20.98271        14.95352         0.75122
C         21.00319        16.37878         0.96350
C         22.18905        14.20411         0.76879
C         22.23190        17.11903         1.13563
C         21.18559        19.31682         0.41847
C         22.31609        18.57701         0.89777
C         23.24781         1.60514        -0.38919
C         23.13520         3.68817        -1.02707
C         24.62061         1.30673        -0.13607
C         24.38869         4.26264        -0.98801
C         23.23793         6.40727        -0.11586
C         23.29709         7.87634         0.10944
C         24.46445         5.68065        -0.54052
C         24.48419         8.56114         0.00873
C         23.43179        10.58598         1.12227
C         23.41823        12.07997         0.90754
C         24.62339         9.93748         0.45118
C         24.63058        12.75497         0.84602
C         23.42463        14.89556         0.87966
C         23.42192        16.29570         1.16425
C         24.65630        14.17942         0.82746
C         24.68564        16.81903         1.50326
C         23.52065        19.34328         0.80232
C         24.76598        19.00706         1.38661
C         25.69823         2.12220        -0.49313
C         25.64899         3.52091        -0.94718
C         26.99550         1.55674        -0.23038
C         26.84041         4.25034        -1.06385
C         25.61201         6.48547        -1.05140
C         25.64910         7.94808        -0.69714
C         26.78702         5.66949        -1.61615
C         26.95509         8.63761        -0.60477
C         25.83224        10.59626         0.40845
C         25.93405        12.00308         1.02091
C         27.02534         9.89920        -0.06220
C         27.15552        12.80166         0.55368
C         25.89456        14.89211         0.73712
C         25.90568        16.25896         1.05485
C         27.14954        14.18973         0.47109
C         27.06105        17.14969         0.62789
C         26.05967        19.37093         1.09829
C         27.19984        18.43953         1.52827
C         28.16373         2.25882        -0.36954
C         28.12904         3.65010        -0.79983
C         29.44807         1.59806        -0.19807
C         29.31900         4.33780        -0.95352
C         28.10076         6.47864        -1.54531
C         28.16444         7.91761        -1.09154
C         29.37686         5.65531        -1.69051
C         29.48919         8.52131        -0.79303
C         28.34704        10.54485         0.14888
C         28.41304        12.01475         0.50362
C         29.56169         9.84708        -0.35192
C         29.70071        12.73788         0.24371
C         28.33735        15.00407         0.17149
C         28.33961        16.39670         0.28954
C         29.62367        14.25171        -0.03333
C         29.43662        17.29415        -0.06606
C         28.50068        19.13871         1.30893
C         29.50041        18.63335         0.49737
C         30.60779         2.27547        -0.29326
C         30.62200         3.77055        -0.43467
C         31.81551         4.29435        -1.18868
C         30.65394         6.40694        -1.39229
C         30.68932         7.77899        -1.06537
C         31.84474         5.60574        -1.53584
C         31.94215         8.43629        -0.86046
C         30.81308        10.52662        -0.33815
C         30.85561        11.97226        -0.26739
C         31.99752         9.77604        -0.56030
C         31.93866        12.65813        -0.79930
C         30.66009        14.71259        -0.95812
C         30.43281        17.00991        -1.02617
C         31.81602        14.01036        -1.20466
C         31.46358        17.88415        -1.37224
C         30.62364        19.48477         0.20880
C         31.58036        19.12394        -0.71135
O          8.85664        15.86306         1.49881
O         11.31243        15.78384         1.44473
O         15.56198        14.64398        -1.73548
O         24.09253         5.75014         0.88963
O         12.24923        13.72617        -1.42674
O         30.39404        15.81461        -1.76567
O         17.95722         5.97757         2.33738
O          4.76765        13.56153         1.85253
O         11.81898         5.72529        -1.57288
O         19.61862        18.14783         1.79981
O         28.52249        10.98918         1.55818
O         14.75198        17.95296        -1.76968
O         30.10637        13.71961         1.24579
O         14.08826         6.85930        -1.12289
O          3.45217        16.27449         0.96459
O          7.18839         9.21468        -1.52645
O         18.39232        11.70699         2.42283
O          5.64510        10.09547         1.57177
O         19.34240         3.74608         1.96050
O         24.65198        17.94404         2.32269
O         28.07387         7.55068        -2.54248
O          6.52662         6.17753         1.62944
O         25.21985         7.49382        -2.04451
O          8.02113         3.73411         1.84972
O         23.01574         2.39463        -1.53763
O         23.62713        10.32061         2.55981
H         22.87056        10.76639         3.01908
O          4.54911         4.38438         1.99538
H          5.32697         4.90962         2.30920
O         27.15677        18.09994         2.91860
H         26.21389        17.97297         3.17857
O          7.40403        12.94787        -1.61038
H          7.39695        12.04286        -1.99033
O         14.00237         5.79023         2.35968
H         13.64833         4.91622         2.66660
O         21.85522         6.10457        -1.97923
H         21.09304         5.62770        -2.37169
O         26.10136        11.83111         2.45484
H         26.97667        11.39308         2.58649
O         15.45652        12.25297        -1.67931
H         15.01752        12.69331        -2.43713
O         22.03802         8.03272         2.15197
H         22.82133         8.45420         2.58494
O          8.53236        12.02385         1.77553
H          9.26344        11.47540         2.12906
O         20.75055         8.44681        -1.27300
H         21.33499         7.85161        -1.80521
O         21.01315        10.65435         2.78360
H         20.94747         9.70475         3.04079
O         26.63176        17.67043        -0.67768
H         26.62308        16.92345        -1.31308
O         15.25200        12.60047         1.92308
H         15.64058        12.00784         2.60586
O          9.31589         5.20155        -1.77814
H         10.16420         5.13669        -2.28204
O         16.86617        16.74956        -1.87155
H         16.26048        16.30130        -2.50518
O         16.55575        10.00160         2.76978
H         17.19657        10.55785         3.27342
O         29.45942         5.29222        -3.10706
H         29.00609         6.00628        -3.60853
O         26.50756         5.49004        -3.02326
H         26.29935         6.38775        -3.37266
O          3.05533        10.48478         1.86823
H          3.83583        10.66701         2.43933
O         13.13197         3.22874         2.28226
H         13.77527         2.58408         2.64912
O         30.76039         4.30884         0.93799
H         30.09515         3.85509         1.49842
O          6.36221        15.53168         2.14710
H          5.99361        14.78466         2.67310
O          4.97627         5.25719        -1.56787
H          4.16602         4.82088        -1.90726
O          2.93632        10.06225        -1.74553
H          2.27347         9.66675        -2.34891
H          0.29704         1.44377        -0.88347
H          0.21194         3.90659        -0.67732
H          2.42622         0.20496        -0.52219
H          0.11888         5.83843        -0.01129
H          0.15348         8.28168        -0.11974
H          0.18011        10.26205        -0.42757
H          0.25376        12.66718        -0.13707
H          0.49384        14.41900        -0.99221
H          0.70464        16.69973        -1.84745
H          2.07849        18.55729        -2.58991
H          4.83419         0.21242        -0.02220
H          4.26769        19.71680        -2.63261
H          7.26585         0.17259         0.13162
H          6.54477        19.88173        -2.06116
H          9.81346         0.11326         0.14080
H          8.80612        20.23340        -1.42470
H         12.30905         0.15910        -0.05253
H         11.31258        20.52208        -0.89849
H         14.82559         0.24888        -0.05694
H         13.76645        20.61904        -0.44054
H         17.23558         0.29606         0.03240
H         16.40219        20.46468        -0.47664
H         19.71028         0.28325         0.44322
H         18.73462        20.27098        -0.65895
H         22.17339         0.51230         1.11857
H         21.39047        20.20781        -0.19415
H         24.84910         0.39981         0.44640
H         23.45254        20.30078         0.26406
H         27.04099         0.50056         0.07656
H         26.26460        20.15612         0.35780
H         29.44438         0.51167        -0.02200
H         28.63368        20.12447         1.77892
H         31.57140         1.75940        -0.16784
H         32.70502         3.65661        -1.29430
H         32.77725         6.05757        -1.91004
H         32.87579         7.87403        -0.99035
H         32.97744        10.26104        -0.46032
H         32.83420        12.11056        -1.12081
H         32.57254        14.43987        -1.87393
H         32.17866        17.59053        -2.15086
H         30.66909        20.46502         0.70377
H         32.41374        19.79822        -0.95029
