         349
 CSIRO Nanostructure Databank - Neutral Graphene Oxide Data Set
C          1.66677         2.18182         2.16120
C          1.52462         3.53600         1.72926
C          2.85467         1.50809         2.02159
C          2.52526         4.19687         1.04664
C          1.32863         6.39550         1.00335
C          1.31514         7.80290         0.83704
C          2.45721         5.61791         0.77685
C          2.44759         8.55200         0.53959
C          1.21517        10.69753         0.16385
C          1.20566        12.11220         0.01360
C          2.39344         9.97447         0.26328
C          2.35668        12.86461        -0.12809
C          1.12781        15.14238         0.03404
C          1.20389        16.49493         0.14090
C          2.29491        14.33784        -0.36667
C          2.44827        17.22826         0.02401
C          2.48602        18.64151         0.21732
C          3.96842         2.11914         1.35758
C          3.71644         3.38597         0.56402
C          5.20238         1.50950         1.30208
C          4.99113         4.16744         0.33569
C          3.72693         6.31784         0.46386
C          3.74548         7.84153         0.44698
C          4.82960         5.55172        -0.25512
C          4.89644         8.54190        -0.14387
C          3.65493        10.74570         0.19910
C          3.64156        12.18441        -0.17536
C          4.99440         9.96847        -0.01001
C          4.82948        12.84187        -0.41734
C          3.60754        15.08848        -0.47774
C          3.65260        16.53377        -0.17804
C          4.86165        14.31202        -0.26518
C          4.90014        17.22224        -0.15972
C          3.67788        19.32843         0.19081
C          4.91626        18.64262        -0.00439
C          6.33769         2.13899         0.67759
C          6.19056         3.52259         0.24284
C          7.54632         1.47575         0.53717
C          7.30289         4.16458        -0.56060
C          6.10510         6.38873        -0.21747
C          6.01353         7.78891        -0.80685
C          7.40384         5.66084        -0.31343
C          7.33091         8.53431        -0.73011
C          6.17132        10.68102        -0.52705
C          6.09649        12.14844        -0.87468
C          7.32669         9.96064        -0.78702
C          7.40211        12.86252        -0.53506
C          6.15610        15.05620        -0.25056
C          6.13804        16.53319        -0.37409
C          7.42849        14.32986        -0.45285
C          7.32994        17.23146        -0.51939
C          6.15632        19.32214        -0.01757
C          7.35715        18.64388        -0.27765
C          8.72436         2.09225        -0.00825
C          8.65231         3.48650        -0.45071
C          9.93796         1.42318        -0.01775
C          9.77717         4.14934        -0.82863
C          8.55679         6.39316        -0.83288
C          8.53289         7.79046        -0.87052
C          9.79983         5.61950        -1.20332
C          9.81234         8.53360        -1.03180
C          8.58218        10.73319        -1.16570
C          8.56040        12.15184        -0.63499
C          9.85400         9.98928        -0.82265
C          9.86986        12.84152        -0.34543
C          8.58035        15.03735        -0.65942
C          8.55045        16.51432        -1.06240
C          9.84456        14.28718        -0.82389
C          9.86020        17.24503        -0.75494
C          8.62065        19.32329        -0.16218
C          9.82710        18.65023        -0.25261
C         11.14210         2.02389        -0.52881
C         11.06530         3.41366        -1.12016
C         12.34384         1.37640        -0.56779
C         12.31489         4.21210        -0.79516
C         10.97964         6.30305        -0.47675
C         11.08947         7.76750        -0.85812
C         12.29290         5.58487        -0.63675
C         12.28620         8.48858        -0.38563
C         11.05686        10.62417        -0.58767
C         11.11661        12.10694        -0.89158
C         12.27320         9.89463        -0.30832
C         12.35789        12.84856        -0.40199
C         11.16153        14.99755        -0.79514
C         11.14073        16.48582        -0.60883
C         12.37940        14.21901        -0.39940
C         12.18095        17.08726         0.31467
C         11.08522        19.29629        -0.07952
C         12.28667        18.57943         0.03538
C         13.56388         2.03807        -1.16594
C         13.56752         3.52538        -0.86345
C         14.86043         1.38641        -0.76176
C         14.75696         4.22390        -0.79587
C         13.50188         6.33067        -0.42101
C         13.45285         7.71567        -0.16034
C         14.77636         5.64015        -0.52780
C         14.68416         8.37009         0.39845
C         13.49175        10.59612         0.06920
C         13.44835        12.09576         0.33845
C         14.62823         9.88678         0.35552
C         14.80753        12.77252         0.25315
C         13.56078        14.98781         0.01728
C         13.48838        16.32642         0.27957
C         14.92124        14.28723         0.03540
C         14.68725        17.11992         0.66390
C         13.53598        19.20832        -0.05529
C         14.74681        18.51410         0.17321
C         16.04858         2.06943        -0.84868
C         16.00725         3.52924        -1.27127
C         17.30954         1.41100        -0.73432
C         17.26699         4.28749        -0.95186
C         15.99073         6.33308        -0.45879
C         15.96403         7.84296        -0.30789
C         17.25740         5.64287        -0.63709
C         17.17842         8.38111         0.42418
C         15.86684        10.58852         0.75825
C         15.90515        12.05978         0.61088
C         17.18637         9.85430         0.73200
C         17.20976        12.70090         0.91673
C         15.84095        14.87993         1.14379
C         15.95447        16.42166         1.04850
C         17.20978        14.17348         1.12920
C         17.25369        17.11689         0.81227
C         15.99150        19.11370         0.03808
C         17.23718        18.46272         0.31461
C         18.52875         2.08066        -0.93574
C         18.51985         3.54950        -1.13382
C         19.76338         1.41284        -0.88846
C         19.83392         4.29648        -0.85977
C         18.51377         6.32779        -0.34551
C         18.47396         7.67183         0.27856
C         19.73731         5.68571        -0.38987
C         19.72918         8.45267         0.34561
C         18.46483        10.59669         0.55267
C         18.47250        11.98780         0.61690
C         19.69685         9.87517         0.43449
C         19.69294        12.73308         0.56072
C         18.46293        14.89983         0.83230
C         18.45202        16.32449         0.88044
C         19.66816        14.18631         0.60957
C         19.73053        16.93705         0.89412
C         18.37789        19.21956        -0.15445
C         19.68927        19.01435         0.24419
C         21.00790         2.09999        -0.72784
C         21.02270         3.51373        -0.52221
C         22.22875         1.39733        -0.64770
C         22.17829         4.16992        -0.02478
C         20.95962         6.32588         0.06906
C         20.94736         7.76910         0.27494
C         22.12677         5.59906         0.25032
C         22.17688         8.48989         0.37238
C         20.92859        10.60148         0.44302
C         20.91686        12.03789         0.45923
C         22.15673         9.88857         0.45685
C         22.16939        12.76374         0.36002
C         20.89408        14.89128         0.36071
C         20.88630        16.31628         0.43067
C         22.14260        14.19094         0.25937
C         22.04232        17.11265        -0.03048
C         20.91982        19.39363        -0.35103
C         22.08207        18.59300        -0.22872
C         23.42688         2.06743        -0.31359
C         23.37631         3.43948         0.09191
C         24.68421         1.39923        -0.41025
C         24.62006         4.01869         0.71761
C         23.35651         6.30321         0.69794
C         23.43133         7.76139         0.47995
C         24.64818         5.54425         0.84191
C         24.64408         8.42071         0.47189
C         23.46211        10.61098         0.69396
C         23.39936        12.07955         0.35759
C         24.59283         9.86799        -0.04632
C         24.62858        12.79035         0.32075
C         23.37884        14.90636         0.26766
C         23.38977        16.36512        -0.01037
C         24.59308        14.21677         0.32855
C         24.61250        17.16830         0.08887
C         23.31699        19.10374        -0.68337
C         24.56707        18.46263        -0.49316
C         25.90292         2.10441        -0.27872
C         25.86274         3.45961         0.09873
C         27.18521         1.42456        -0.48954
C         27.15510         4.10825         0.51452
C         25.93367         6.29381         0.72998
C         25.89515         7.71686         0.68039
C         27.16866         5.61190         0.67235
C         27.10887         8.44733         0.87088
C         25.99865        10.62458         0.08212
C         25.87563        12.09395         0.45870
C         27.00809         9.89986         0.92798
C         27.05254        12.79106         0.82440
C         25.82135        14.97509         0.65315
C         25.79046        16.48130         0.67552
C         27.14707        14.26906         0.62231
C         27.11573        17.13918         0.77505
C         25.75150        19.12010        -1.05786
C         26.99672        18.97089        -0.51914
C         28.35013         2.14035        -0.56945
C         28.09835         3.62126        -0.60180
C         29.67409         1.58599        -0.77068
C         30.05555         4.33438         0.46280
C         28.40633         6.32486         0.72508
C         28.35473         7.74098         0.90990
C         29.71436         5.72851         0.39856
C         29.62688         8.45083         0.87886
C         27.94478        10.69060         1.58190
C         28.16382        12.06747         1.28792
C         29.80403         9.68697         1.51532
C         29.44188        12.73778         1.69009
C         28.42916        15.03622         0.83835
C         28.33845        16.55444         0.81224
C         29.53950        14.27008         1.55730
C         29.51526        17.55385         0.52325
C         28.25490        18.99738        -1.21579
C         29.36298        18.27614        -0.82491
C         30.83370         2.30866        -0.76777
C         30.91483         3.74474        -0.51234
C         31.73695         4.59463        -1.27176
C         30.69510         6.54818        -0.24754
C         30.71017         7.95859         0.10455
C         31.70784         5.96850        -1.04310
C         31.80894         8.81508        -0.13614
C         30.81982        10.59703         1.19867
C         30.73978        11.98903         1.68348
C         31.84275        10.12226         0.34948
C         31.90931        12.64653         1.97010
C         30.89119        14.83311         1.79368
C         30.82071        16.81776         0.60199
C         31.96949        14.06587         2.12388
C         31.77996        16.75721        -0.35293
C         30.44348        18.19910        -1.78513
C         31.57654        17.46850        -1.58888
O         10.55716        14.60924        -2.07609
O         29.14158        13.62053         2.82433
O         23.86974         5.92173         2.04461
O          2.86751        14.72273        -1.67563
O         28.84693        10.07612         2.46826
O          4.17607         7.05653         1.64103
O         10.63647         8.12427        -2.19106
O         24.27728         9.78789        -1.39351
O          6.89875         6.20798         0.97083
O          6.84854         4.07707        -1.92472
O          4.53841        10.48557         1.30278
O          5.49958        14.65177         1.02714
O         28.06988        14.53435        -0.50212
O         27.04645        18.53159         0.81494
O         31.02973        16.22428         1.85936
O         19.84510        18.22739         1.40515
O         22.62617        16.55065        -1.25713
O         25.55215        15.70517         1.91353
O         17.31237        13.27568         2.29199
O         15.10171        17.04399         2.07662
O         19.35678         4.04509        -2.22330
O         28.24858         4.28059        -1.61825
O         17.67002         7.60450         1.54699
O         10.86343        17.18204        -1.85041
O         16.49751        10.12209         2.00822
O         24.65064         3.50443         2.11070
H         24.13570         4.16857         2.63583
O         26.55572        10.61913        -1.25421
H         25.79050        10.31086        -1.83586
O         10.00227         5.69890        -2.63999
H          9.13255         5.53651        -3.06572
O          6.00806        12.19221        -2.33820
H          6.81342        11.73579        -2.69451
O          5.69135         7.66845        -2.23054
H          5.11615         6.86247        -2.33831
O         11.09586        12.11160        -2.34626
H         11.07832        13.05671        -2.64702
O         10.03277        12.88914         1.09514
H          9.17689        13.13831         1.50267
O         10.63919         6.25302         0.93478
H         11.41741         6.55020         1.45271
O         11.64629        16.91864         1.65992
H         12.37118        17.10300         2.29604
O          8.38822        16.51017        -2.50362
H          9.29057        16.38289        -2.88181
O         23.76563        10.53183         2.11857
H         23.00156        10.88698         2.61967
O         29.54443        18.55565         1.55834
H         29.83066        18.11505         2.38662
O         29.77780         3.56076         1.52621
H         29.11319         3.97158         2.12410
O          4.50448         5.35788        -1.65825
H          5.27085         4.77919        -1.99678
O         27.37706         3.50541         1.83087
H         26.47758         3.43127         2.25060
O         11.10400         3.23597        -2.58213
H         10.84518         4.11489        -2.96692
O         13.50388         1.92189        -2.63281
H         12.62710         2.31467        -2.89690
O         14.74245         7.98111         1.79365
H         15.42956         8.54227         2.23316
O         13.08160        12.21208         1.75128
H         13.39630        13.08666         2.07689
O         15.57100        14.52456        -1.23484
H         14.99082        14.19295        -1.95172
O          3.31030         2.92597        -0.77574
H          4.12015         2.63456        -1.24788
O         15.15895        14.55338         2.36558
H         15.78946        14.03373         2.92275
O          8.55748        10.88570        -2.62375
H          9.45022        11.23764        -2.87779
O         15.90081         3.50918        -2.73414
H         15.11154         2.94741        -2.95118
O         16.04384         8.41490        -1.64048
H         15.41721         7.93619        -2.22339
H          0.82608         1.70905         2.68809
H          0.61045         4.07090         2.02563
H          2.97849         0.50344         2.45311
H          0.38013         5.91202         1.27605
H          0.34924         8.31439         0.95558
H          0.24687        10.18402         0.23786
H          0.22705        12.61068        -0.01845
H          0.17978        14.63365         0.26132
H          0.30274        17.06582         0.41072
H          1.54118        19.18069         0.37778
H          5.34203         0.52157         1.76950
H          3.69035        20.42027         0.32018
H          7.62346         0.43218         0.88073
H          6.17994        20.40459         0.17761
H          9.99457         0.39687         0.37724
H          8.61637        20.38759         0.11746
H         12.42637         0.34038        -0.20303
H         11.11428        20.39676        -0.05482
H         14.86210         0.30807        -0.53592
H         13.57856        20.27786        -0.31249
H         17.32236         0.33051        -0.52170
H         16.03049        20.15067        -0.32879
H         19.77104         0.31296        -0.85095
H         18.17763        19.98152        -0.92304
H         22.25379         0.32110        -0.87176
H         20.97791        20.30495        -0.96559
H         24.70088         0.33626        -0.69220
H         23.33387        20.13413        -1.06922
H         27.18489         0.32583        -0.56273
H         25.62658        19.60502        -2.03768
H         29.73064         0.50392        -0.97053
H         28.26024        19.44281        -2.22390
H         31.76280         1.79550        -1.06629
H         32.43196         4.16810        -2.00821
H         32.43131         6.61577        -1.55571
H         32.65176         8.45749        -0.74301
H         32.67899        10.78193         0.07735
H         32.84969        12.07945         2.00943
H         32.92139        14.54835         2.37765
H         32.71040        16.20121        -0.17911
H         30.31112        18.74761        -2.72957
H         32.35660        17.43162        -2.36070
