         732
 CSIRO Nanostructure Databank - Neutral Graphene Oxide Data Set
C         23.49436        24.75905        -2.16590
C         22.38839        25.53641        -2.63192
C         23.55631        27.63815        -2.09669
C         22.37139        26.89577        -2.54724
C         23.46917        29.13360        -1.77678
C         22.07227        29.64841        -1.52827
C         23.04533        31.64077        -0.51933
C         21.91011        30.89112        -1.02759
C         22.99125        33.07580        -0.35902
C         21.89148        33.84832        -0.88666
C         22.92968        35.98951        -0.27998
C         21.88137        35.22113        -0.87935
C         22.97054        37.40072        -0.24253
C         21.81820        38.17477        -0.67134
C         22.95543        40.34564        -0.28401
C         21.79937        39.52520        -0.69236
C         23.06797        41.76873        -0.82716
C         22.01731        42.41298        -1.63209
C         23.45520        44.36572        -2.03740
C         22.21565        43.64132        -2.18129
C         23.64846        45.66109        -2.58861
C         22.60351        46.32837        -3.29206
C         24.03284        48.24153        -3.70370
C         22.79555        47.58111        -3.83538
C         25.77703        23.18060        -1.21156
C         25.69384        24.56475        -1.00804
C         24.58524        25.33682        -1.55490
C         25.65443        27.43476        -0.58290
C         24.69974        26.80887        -1.52620
C         25.49534        28.79384        -0.22421
C         24.40366        29.57834        -0.65613
C         25.26270        31.55396         0.61710
C         24.20308        30.90870        -0.17700
C         25.22759        33.08993         0.76966
C         24.06883        33.77756         0.18970
C         25.30871        35.98191         0.74011
C         24.00367        35.22740         0.35783
C         25.35254        37.40871         0.42172
C         24.16948        38.09452         0.12269
C         25.52380        40.19162        -0.13216
C         24.18353        39.60761         0.28783
C         25.63938        41.55966        -0.77667
C         24.39118        42.39915        -0.89369
C         25.84576        44.36768        -1.27366
C         24.55380        43.67876        -1.40793
C         25.98574        45.72674        -1.75788
C         24.92172        46.33942        -2.44563
C         26.36969        48.34207        -2.85478
C         25.09509        47.65291        -3.01820
C         26.58812        49.62888        -3.38377
C         27.95649        22.99126        -0.12600
C         26.90340        22.42560        -0.82449
C         27.83608        24.41168         0.26258
C         26.74752        25.23846        -0.31150
C         27.85240        27.30305         0.57565
C         26.71520        26.63003        -0.06251
C         27.79356        28.66105         0.82089
C         26.45077        29.35477         0.81700
C         27.72774        31.61811         1.07851
C         26.52094        30.85283         0.78242
C         27.77318        33.03890         0.54293
C         26.51658        33.82804         0.83546
C         27.83515        35.92103         0.86926
C         26.56533        35.19784         0.78057
C         27.79585        37.37090         0.82909
C         26.63014        38.07893         0.51410
C         28.00934        40.14388         0.03521
C         26.67168        39.49391         0.14897
C         28.06942        41.63185        -0.12780
C         26.74376        42.36546        -0.07522
C         28.02834        44.55858        -0.03246
C         26.88442        43.76504        -0.60317
C         28.26147        45.84871        -0.76597
C         27.23675        46.42212        -1.54513
C         28.63015        48.44657        -1.85539
C         27.41763        47.73096        -2.10790
C         28.80699        49.77199        -2.37978
C         27.77483        50.32114        -3.15566
C         30.43732        20.15941         0.20674
C         29.25970        20.86157        -0.03633
C         30.36570        22.94689         0.54378
C         29.18769        22.26054         0.15978
C         30.34228        24.34928         1.11407
C         29.05022        25.10927         0.83358
C         30.31216        27.23690         0.89686
C         29.10118        26.58183         0.75788
C         30.32493        28.67496         1.19929
C         28.99343        29.38257         1.28024
C         30.24815        31.55041         0.64082
C         29.01786        30.88341         1.23167
C         30.23874        33.03818         0.89366
C         29.05893        33.75868         0.88788
C         30.33211        35.85353         1.44238
C         29.03149        35.20356         0.99530
C         30.35935        37.37112         1.35494
C         29.04244        38.12948         1.10565
C         30.36913        40.20441         0.82755
C         29.17332        39.50440         0.65201
C         30.44068        41.63948         0.64193
C         29.27868        42.37159         0.28338
C         30.50937        44.47141         0.43877
C         29.30004        43.76713         0.19729
C         30.55798        45.89982         0.21969
C         29.46330        46.55610        -0.48655
C         30.72183        48.69902        -0.54132
C         29.61861        47.85788        -1.01417
C         30.99072        49.95196        -1.26536
C         30.03696        50.51262        -2.10444
C         31.36642        52.59623        -2.25354
C         30.28738        51.83220        -2.63650
C         32.92629        18.65948         0.72218
C         32.89100        20.14163         0.96746
C         31.61888        20.83882         0.52369
C         32.84625        22.99789         0.71638
C         31.59625        22.25324         0.62483
C         32.83377        24.42028         0.73181
C         31.60020        25.13471         0.81758
C         32.80715        27.28457         0.84895
C         31.57958        26.53060         0.85511
C         32.80622        28.71511         0.93014
C         31.57868        29.44989         1.02401
C         32.79640        31.57306         0.89837
C         31.56160        30.84177         0.94916
C         32.81081        32.99553         0.83473
C         31.53553        33.72686         0.71542
C         32.85723        35.89324         0.93831
C         31.55030        35.21479         0.80295
C         32.86045        37.37751         0.66293
C         31.60045        38.08720         1.07943
C         32.84378        40.21349         1.18023
C         31.59839        39.47837         1.05201
C         32.83001        41.60514         1.25840
C         31.64255        42.33929         0.93472
C         32.92182        44.47455         1.05266
C         31.67938        43.76429         0.83145
C         32.93863        45.89949         0.91460
C         31.73791        46.58739         0.52926
C         33.05305        48.73617         0.61233
C         31.78512        48.04561         0.36826
C         33.16275        50.11273         0.07551
C         32.23557        50.67337        -1.00179
C         33.48495        52.82468        -0.89871
C         32.36266        52.09949        -1.35735
C         33.91958        54.07714        -1.49725
C         35.20094        18.75538        -0.23349
C         34.00167        18.02608         0.23883
C         35.26420        20.21239         0.03649
C         34.10892        20.87989         0.45557
C         35.29736        23.03207         0.35910
C         34.08269        22.30329         0.53568
C         35.29370        24.45904         0.46139
C         34.05924        25.15657         0.64081
C         35.27424        27.31086         0.68645
C         34.04187        26.58277         0.72754
C         35.27308        28.73062         0.77102
C         34.03518        29.43642         0.87747
C         35.27032        31.59018         0.90542
C         34.03526        30.86419         0.91101
C         35.26452        33.00858         0.92178
C         34.02533        33.71525         0.89091
C         35.32208        35.92085         0.71512
C         34.01867        35.17782         0.91216
C         35.30929        37.36405         1.18388
C         34.10567        38.08447         1.13418
C         35.31670        40.20454         1.50070
C         34.08140        39.48278         1.31473
C         35.31664        41.59145         1.64163
C         34.02341        42.33687         1.81388
C         35.34710        44.47646         1.49457
C         34.10562        43.78817         1.39776
C         35.37131        45.90150         1.34063
C         34.15370        46.60929         1.14135
C         35.43390        48.74273         1.34018
C         34.17243        48.05940         1.07678
C         35.51482        50.11734         1.62427
C         33.88437        51.13314         0.79279
C         35.35364        53.10994         0.84273
C         34.22399        52.34947         0.24405
C         35.38367        54.58239         0.47407
C         34.86647        54.84852        -0.92399
C         37.85403        15.98962        -0.37540
C         36.69154        16.61297        -0.14092
C         37.73590        18.84050        -0.61789
C         36.49359        18.03528        -0.52451
C         37.73645        20.21074        -0.38164
C         36.49674        20.91733        -0.09764
C         37.74980        23.04487         0.08716
C         36.51072        22.32203         0.11566
C         37.75050        24.45758         0.22412
C         36.51856        25.18097         0.38155
C         37.72031        27.34349         0.47136
C         36.50943        26.60701         0.52133
C         37.73973        28.74810         0.63908
C         36.50442        29.46212         0.76462
C         37.75990        31.59424         0.95123
C         36.51569        30.87551         0.88090
C         37.76810        32.99901         1.07474
C         36.52084        33.73349         1.03612
C         37.77166        35.81558         1.47576
C         36.52177        35.11824         1.13792
C         37.78404        37.31653         1.58852
C         36.52188        38.06271         1.40853
C         37.81826        40.17327         1.56016
C         36.55314        39.46064         1.52314
C         37.82755        41.57979         1.65703
C         36.57111        42.30875         2.05719
C         37.80844        44.45360         1.69910
C         36.58341        43.77742         1.70374
C         37.84458        45.89110         1.57811
C         36.63153        46.59674         1.39196
C         37.88713        48.74338         1.42115
C         36.65865        48.02529         1.33518
C         37.90657        50.18159         1.37239
C         36.68624        50.88598         1.42649
C         37.92301        53.08350         1.18355
C         36.62499        52.37355         1.33376
C         37.93228        54.50284         0.96781
C         36.73312        55.22791         0.70166
C         37.95440        57.32224         0.74312
C         36.75887        56.61492         0.61327
C         40.30171        14.57366        -1.28273
C         40.27695        15.95046        -1.07961
C         38.92151        16.63036        -1.23546
C         40.28429        18.85689        -0.80719
C         38.96354        18.14244        -1.03049
C         40.23211        20.24624        -0.32746
C         38.99827        20.92973        -0.27877
C         40.21720        23.03795         0.11119
C         38.98385        22.33859        -0.03551
C         40.21658        24.47429         0.19699
C         38.99211        25.15696         0.17965
C         40.26822        27.35909         0.27983
C         38.96119        26.62513         0.14061
C         40.22421        28.71774         0.86250
C         38.97165        29.47696         0.75798
C         40.27619        31.57137         1.00171
C         39.00238        30.86463         0.92320
C         40.25966        33.01574         1.03554
C         39.02710        33.71001         1.10250
C         40.24760        35.86452         1.19314
C         39.04429        35.12542         1.23532
C         40.24613        37.30248         1.30374
C         39.06347        38.02749         1.40923
C         40.28532        40.17931         1.29737
C         39.04976        39.46144         1.42185
C         40.27703        41.60857         1.34437
C         39.04782        42.30260         1.55774
C         40.30257        44.40713         1.74159
C         39.06161        43.72351         1.69484
C         40.30993        45.84451         2.19921
C         39.07645        46.60645         1.72090
C         40.31640        48.77129         1.91493
C         39.09012        47.99867         1.61264
C         40.34677        50.22153         1.60791
C         39.16160        50.91411         1.38839
C         40.37500        53.09196         1.20146
C         39.13813        52.37471         1.25088
C         40.40534        54.50077         1.13713
C         39.17165        55.22091         1.00764
C         40.42434        57.38990         0.94757
C         39.16939        56.64732         0.90518
C         40.44591        58.78729         0.84699
C         42.69105        14.51093        -0.94352
C         41.50244        13.85141        -1.20576
C         42.72002        15.91406        -0.76270
C         41.49691        16.65033        -0.83016
C         42.71680        18.74164        -0.31489
C         41.52630        18.07363        -0.63524
C         42.71445        20.16994        -0.05549
C         41.45763        20.90841        -0.02690
C         42.66729        23.02674         0.50545
C         41.42764        22.30226         0.19485
C         42.69993        24.48703         0.35771
C         41.47698        25.19940         0.29328
C         42.75182        27.31361         0.48193
C         41.51916        26.60101         0.40216
C         42.78667        28.73792         0.63567
C         41.54562        29.44320         1.01620
C         42.81180        31.62025         1.13428
C         41.49605        30.90080         0.98430
C         42.72501        33.06742         0.75299
C         41.48930        33.75096         0.92615
C         42.67134        35.91217         0.62919
C         41.47396        35.17251         0.94515
C         42.67786        37.30311         0.71534
C         41.57074        38.01248         1.43952
C         42.70702        40.21468         0.89687
C         41.50828        39.48920         1.13439
C         42.72678        41.62843         1.02709
C         41.50384        42.32663         1.29014
C         42.83333        44.40585         1.79325
C         41.50734        43.72964         1.53170
C         42.78242        45.90987         1.62940
C         41.61251        46.56231         1.89599
C         42.92445        48.75703         2.18994
C         41.59814        48.02370         2.13212
C         42.81563        50.19493         1.72919
C         41.63389        50.88073         1.57437
C         42.92087        53.10574         1.38638
C         41.64416        52.33078         1.22015
C         42.88551        54.58667         1.40043
C         41.65746        55.24580         1.19465
C         42.88330        57.40420         1.06711
C         41.65337        56.67724         1.08188
C         42.85670        58.81557         0.95906
C         41.65362        59.49418         0.86333
C         45.20881        15.93384        -0.55964
C         43.96722        16.61474        -0.52743
C         45.19952        18.69493        -0.02864
C         43.96442        18.01574        -0.27763
C         45.19215        20.13614         0.10993
C         43.93510        20.82754         0.11981
C         45.19058        23.03273         0.12582
C         43.97208        22.26629         0.43816
C         45.14920        24.42297         0.08515
C         43.93252        25.16831         0.28896
C         45.19304        27.32602         0.13206
C         43.96666        26.59788         0.30036
C         45.19619        28.75405         0.15417
C         43.98029        29.45945         0.45570
C         45.15896        31.60993         0.23870
C         44.00452        30.89706         0.54856
C         45.13389        33.06227         0.18637
C         43.89905        33.76508         0.39190
C         45.02504        35.86653        -0.17523
C         43.86471        35.18781         0.25031
C         45.00549        37.33562        -0.31680
C         43.79602        38.08365         0.18971
C         45.10137        40.20964         0.30823
C         43.91344        39.52548         0.51706
C         45.14906        41.63850         0.48086
C         43.96210        42.34820         0.86398
C         45.19507        44.47251         0.88402
C         44.00414        43.74365         1.10328
C         45.23313        45.90553         1.05565
C         44.04079        46.63331         1.40677
C         45.31073        48.75694         1.38946
C         44.08097        48.02191         1.54357
C         45.35095        50.14698         1.60193
C         44.11371        50.89473         1.87505
C         45.44122        53.11077         1.82904
C         44.13134        52.38603         1.90586
C         45.40489        54.61446         1.62208
C         44.11044        55.30521         1.41314
C         45.38950        57.34767         0.94240
C         44.13116        56.69033         1.16451
C         46.40065        16.59459        -0.31751
C         47.68317        18.64211         0.36931
C         46.42028        17.97132        -0.01870
C         47.65950        20.18384         0.46950
C         46.39236        20.87062         0.19762
C         47.65379        22.98227        -0.03957
C         46.42285        22.29647         0.03549
C         47.66512        24.40692        -0.37234
C         46.34309        25.17431        -0.31522
C         47.62091        27.32037        -0.29423
C         46.39650        26.63028        -0.13224
C         47.61705        28.75577        -0.30671
C         46.40048        29.46552        -0.10058
C         47.56375        31.61639        -0.37971
C         46.39211        30.91375        -0.10524
C         47.62948        33.11543        -0.19300
C         46.28152        33.77989        -0.20812
C         47.27921        35.88612        -1.25343
C         46.21591        35.16239        -0.44899
C         47.39370        37.34149        -0.80261
C         46.31340        38.03937        -0.38272
C         47.49795        40.28448        -0.49413
C         46.41450        39.45563         0.15858
C         47.54458        41.65655        -0.23071
C         46.36327        42.35595         0.28093
C         47.60187        44.50218         0.31621
C         46.38061        43.76753         0.47404
C         47.65417        45.90090         0.51546
C         46.45840        46.62039         0.86995
C         47.73516        48.76364         0.83148
C         46.50810        48.03417         1.04336
C         47.80489        50.15843         1.05563
C         46.66974        50.86577         1.74759
C         47.81617        53.05596         1.18356
C         46.64190        52.35980         1.46376
C         47.82799        54.50826         1.09390
C         46.64215        55.26213         1.16620
C         46.57505        56.65868         0.88234
C         50.14868        18.78083         0.26839
C         49.00731        18.05443         0.12082
C         50.15460        20.21983         0.42743
C         48.92988        20.91335         0.34595
C         50.12532        23.06533         0.15171
C         48.90420        22.32010         0.14862
C         50.11335        24.49932        -0.04223
C         48.90355        25.18307        -0.24103
C         50.09649        27.31617        -0.50596
C         48.86439        26.59963        -0.36133
C         50.05755        28.75690        -0.64727
C         48.84026        29.46639        -0.52805
C         49.95457        31.62918        -0.94474
C         48.80473        30.91955        -0.61227
C         49.97213        33.10632        -1.28533
C         48.67812        33.83110        -1.02301
C         49.93509        35.86387        -1.80967
C         48.61952        35.14476        -1.35215
C         49.95205        37.20168        -1.03896
C         48.64047        38.01602        -1.29992
C         49.90242        40.35991        -1.31808
C         48.63696        39.57336        -1.12902
C         49.96369        41.87589        -1.12153
C         48.75075        42.44145        -0.40991
C         50.08785        44.48307         0.05336
C         48.78489        43.78082        -0.07526
C         50.09179        45.95762         0.02251
C         48.88861        46.63420         0.29178
C         50.09853        48.78188         0.09608
C         48.90193        48.06258         0.38926
C         50.12842        50.19896         0.24583
C         48.98262        50.88848         0.74582
C         50.22656        53.02400         0.60593
C         49.02390        52.32262         0.86751
C         50.23603        54.45909         0.69908
C         49.08695        55.16403         0.89519
C         52.63698        20.33045         0.78749
C         51.37186        20.97706         0.53350
C         52.55744        23.21106         0.73075
C         51.33864        22.38211         0.41174
C         52.56380        24.54351         0.02568
C         51.35616        25.22915        -0.16943
C         52.57765        27.31209        -0.99946
C         51.31827        26.62115        -0.51827
C         52.52994        28.82365        -0.84639
C         51.28511        29.46709        -0.84183
C         52.52646        31.70994        -1.04838
C         51.21114        30.90446        -1.12197
C         52.45690        33.15885        -0.80525
C         51.11825        33.84306        -0.49941
C         52.42333        35.98029        -1.11099
C         51.05924        35.37002        -0.83339
C         52.45719        37.40310        -1.33532
C         51.17811        38.09490        -1.09243
C         52.45533        40.30962        -1.37946
C         51.17768        39.59292        -1.16796
C         52.46960        41.71956        -1.07969
C         51.31489        42.36792        -0.66150
C         52.69446        44.52321        -0.21638
C         51.37844        43.74299        -0.12871
C         52.51588        45.98241        -0.58874
C         51.29844        46.66244        -0.29694
C         52.43736        48.81951        -0.74519
C         51.27688        48.08939        -0.32416
C         52.42395        50.24612        -0.66300
C         51.32352        50.92096        -0.08111
C         52.64404        53.01000        -0.01173
C         51.39306        52.32631         0.18067
C         53.80943        21.03037         0.88074
C         55.06242        23.16377         0.77549
C         53.86866        22.45364         0.72775
C         55.10446        24.56620         0.28941
C         53.84005        25.24045        -0.16653
C         54.98517        27.42038        -0.32906
C         53.83333        26.70820        -0.40107
C         55.02938        28.78387        -1.00665
C         53.74581        29.56795        -0.83670
C         55.01042        31.72025        -0.76242
C         53.77467        30.96435        -0.83361
C         54.92000        33.13777        -0.74078
C         53.66448        33.84603        -0.76234
C         54.87634        35.95476        -1.37748
C         53.61760        35.28694        -0.98988
C         54.88797        37.43427        -1.72234
C         53.61600        38.14129        -1.55744
C         54.90168        40.29737        -1.62914
C         53.63976        39.58979        -1.52723
C         54.91975        41.70789        -1.53493
C         53.73326        42.43170        -1.17973
C         54.94617        44.55678        -1.31685
C         53.76832        43.82029        -1.01312
C         54.91086        46.00408        -1.27805
C         53.65223        46.70580        -1.01164
C         54.77843        48.80893        -1.83315
C         53.60533        48.11533        -1.14675
C         54.78978        50.32891        -1.70313
C         53.57663        51.03807        -1.13093
C         53.69582        52.40998        -0.62319
C         57.43352        23.38799         1.33171
C         56.32677        22.60349         1.16300
C         57.41218        24.82481         1.14067
C         56.26211        25.41029         0.64384
C         57.43403        27.65016         0.52415
C         56.16377        26.86345         0.39737
C         57.58400        28.92826        -0.24013
C         56.32902        29.57940        -0.77495
C         57.50352        31.79594        -0.57891
C         56.27204        31.05835        -0.73740
C         57.44621        33.20881        -0.64294
C         56.16444        33.89855        -0.58848
C         57.42101        36.09940        -1.18529
C         56.15907        35.39107        -0.88456
C         57.38874        37.49402        -1.50450
C         56.16122        38.18003        -1.64594
C         57.38605        40.30670        -1.87900
C         56.14209        39.59050        -1.72498
C         57.36187        41.72846        -1.91679
C         56.15675        42.42058        -1.68977
C         57.38898        44.56133        -1.61259
C         56.14401        43.85717        -1.61004
C         57.36205        46.03190        -1.61033
C         56.08214        46.73285        -1.46039
C         57.27263        48.88976        -1.26345
C         56.09794        48.16608        -1.45877
C         57.24313        50.33564        -1.38384
C         56.09825        51.00875        -1.63684
C         59.71275        25.07912         2.11804
C         58.59871        25.63318         1.45205
C         59.74613        27.81762         1.44424
C         58.64242        26.99739         1.08329
C         59.73746        29.23491         1.12549
C         58.90087        29.69303        -0.04887
C         59.84555        31.97128         0.24280
C         58.73168        31.18766        -0.15444
C         59.98742        33.32481        -0.32274
C         58.66382        33.98654        -0.80491
C         59.87304        36.17462        -0.98134
C         58.63605        35.45084        -0.96540
C         59.87089        37.52824        -1.37791
C         58.63096        38.20639        -1.64089
C         59.88510        40.28778        -2.38083
C         58.61276        39.58705        -1.93721
C         59.89288        41.74424        -1.95259
C         58.62140        42.50459        -2.23709
C         59.84286        44.56295        -1.32240
C         58.61058        43.90231        -1.67467
C         59.75767        45.95889        -0.71669
C         58.62657        46.77574        -1.31380
C         59.69704        48.84721        -0.59983
C         58.53820        48.21984        -0.98831
C         60.81575        25.86942         2.43871
C         60.83516        27.22452         2.12090
C         60.66488        30.12632         1.64540
C         60.77798        31.44309         1.15595
C         61.06986        34.25546         0.02020
C         61.04764        35.54493        -0.40673
C         61.10568        38.27480        -1.52482
C         61.12789        39.54102        -1.98542
C         61.00965        42.41250        -1.55208
C         61.00071        43.81998        -1.25613
C         61.02451        46.77597        -0.67468
C         60.94679        48.12287        -0.53957
O         56.09095        34.93705         0.49674
O         46.91137        24.72828        -1.59301
O         29.64150        28.90196         2.50130
O         45.58086        54.02923         2.97149
O         51.21167        38.91003         0.14353
O         24.76279        27.37425        -2.89837
O         24.31780        35.63484         1.73862
O         40.78138        48.43040         3.30306
O         24.86587        32.22451         1.89116
O         51.92927        31.29271        -2.35628
O         58.26025        46.53161        -2.69513
O         40.85922        28.81318         2.17322
O         29.58303        37.93520         2.46477
O         37.74388        36.48772         2.81383
O         28.31709        40.76001        -1.28763
O         42.52080        52.59547         0.05567
O         35.55283        18.34852        -1.61105
O         43.35116        22.57884         1.73689
O         39.64602        27.23382        -1.03593
O         39.66844        18.76381        -2.15971
O         31.41131        34.60105        -0.51360
O         49.05030        40.12076        -2.47040
O         47.59348        19.32225         1.65855
O         59.62121        33.35950        -1.72676
O         54.90644        36.39046        -2.76835
O         54.75247        24.59265        -1.15953
O         30.66871        48.82117         0.93642
O         50.81098        43.89201         1.23302
O         57.32443        28.93009        -1.68128
O         22.58757        41.47512         0.57210
O         27.98499        24.64142         1.73132
O         34.34561        50.77131         2.06293
O         50.34561        36.30557         0.17256
O         33.50324        49.98112        -1.36257
O         28.40160        31.48288         2.39995
O         44.04319        51.68156         3.18151
O         35.64467        52.97050         2.25925
O         44.02148        37.84721        -1.26987
O         53.83394        50.95071        -2.61498
O         56.40695        27.73264         1.58849
O         46.72441        35.87503        -2.59885
H         47.27407        36.49876        -3.13262
O         53.26079        44.56129         1.13225
H         52.49609        44.47732         1.75296
O         27.59245        44.93845         1.34464
H         26.91818        45.64617         1.25397
O         59.74815        29.31904        -1.19206
H         59.19171        29.43116        -1.99695
O         34.43347        55.22701         1.37220
H         34.59713        54.85014         2.26537
O         41.92053        37.92823         2.87977
H         41.14806        38.25462         3.38939
O         59.86560        40.29117        -3.84370
H         59.26255        41.02676        -4.12234
O         54.59826        48.51790        -3.25371
H         54.02246        49.23388        -3.60929
O         55.00221        28.47796        -2.44292
H         55.92591        28.25114        -2.70475
O         50.23655        33.24341        -2.70716
H         50.92321        32.56485        -2.94735
O         36.54883        42.29140         3.55718
H         36.72534        41.36656         3.83672
O         43.07928        31.62484         2.59708
H         42.27321        31.96473         3.04210
O         43.07774        44.21040         3.23187
H         42.30610        44.59504         3.70711
O         52.39932        23.58313         2.16995
H         51.47307        23.88446         2.29349
O         50.91919        33.63284         0.90376
H         49.99791        33.90153         1.13650
O         50.19706        35.87688        -3.18887
H         50.17557        34.93536        -3.48983
O         49.88458        42.47354        -2.46387
H         49.25756        41.91452        -2.98148
O         24.13489        39.79475         1.73095
H         23.76616        40.69590         1.88691
O         32.91956        20.28776         2.42845
H         32.79064        21.23805         2.63711
O         59.35074        45.74306         0.67725
H         60.07955        45.27387         1.13497
O         32.90400        37.46153        -0.80625
H         33.76199        37.05375        -1.08421
O         52.62746        27.06049        -2.43571
H         53.44789        27.50748        -2.76690
O         25.96004        41.33412        -2.17912
H         26.88009        40.96669        -2.22467
O         46.87353        39.25272         1.54714
H         46.92068        40.13182         1.98094
O         40.22477        45.78143         3.65933
H         40.26620        46.71835         3.97443
O         26.37708        42.45794         1.32655
H         26.81462        43.26555         1.69762
O         30.47432        35.52119         2.85236
H         29.91490        36.16173         3.35049
O         30.09439        31.37141        -0.80839
H         30.70373        31.99672        -1.25617
O         46.95995        50.81228         3.19818
H         46.16146        51.16702         3.65562
O         27.76127        32.89166        -0.91715
H         28.08331        33.72896        -1.31267
O         23.93768        29.83366        -2.97331
H         24.64693        29.26709        -3.35818
O         33.79692        42.38165         3.27846
H         34.67831        42.56959         3.69107
O         30.38944        24.14420         2.56467
H         29.45252        24.05723         2.86025
O         43.31114        48.83164         3.59260
H         42.49881        49.06929         4.09538
O         48.49684        37.79716        -2.74026
H         48.91881        38.55200        -3.21703
O         35.44355        36.04982        -0.76791
H         35.40986        35.14236        -1.14220
O         48.12539        33.30173         1.19426
H         47.49119        32.86309         1.80188
O         38.50470        16.41240        -2.60976
H         38.93021        17.11944        -3.14545
O         58.57772        42.68754        -3.71923
H         59.17164        43.43843        -3.93744
O         25.84829        29.03392         2.12426
H         26.41510        29.43650         2.81830
H         23.41145        23.66641        -2.24023
H         21.50565        25.00479        -3.01451
H         21.45988        27.44096        -2.82632
H         21.19728        29.08300        -1.87570
H         20.90246        31.32346        -0.94319
H         21.05054        33.31991        -1.35561
H         21.03129        35.73819        -1.34526
H         20.90639        37.63528        -0.96110
H         20.87706        40.04747        -0.98241
H         21.03593        41.92776        -1.72384
H         21.38821        44.09722        -2.74166
H         21.62490        45.84618        -3.41178
H         24.13914        49.23739        -4.15316
H         21.97700        48.07534        -4.37659
H         24.97745        22.65939        -1.75358
H         25.80958        50.12265        -3.97977
H         26.93732        21.36856        -1.12084
H         27.88028        51.32782        -3.58141
H         30.43492        19.06417         0.12185
H         28.35983        20.29926        -0.31850
H         31.45548        53.62357        -2.63546
H         29.55731        52.27538        -3.32688
H         32.05552        18.07436         1.05327
H         33.50059        54.36186        -2.47369
H         33.97775        16.93622         0.09149
H         35.19400        55.77434        -1.42055
H         37.99996        14.95225        -0.03830
H         35.89090        16.09819         0.41151
H         37.92133        58.41664         0.67829
H         35.81810        57.15621         0.44375
H         39.36685        14.04566        -1.51585
H         39.51362        59.35851         0.75633
H         43.61638        13.92405        -0.88118
H         41.49733        12.76323        -1.35642
H         43.79104        59.39082         0.97223
H         41.64359        60.59048         0.79422
H         45.24572        14.85735        -0.76909
H         45.40363        58.42354         0.72628
H         47.33793        16.02189        -0.32755
H         47.48700        57.20665         0.61007
H         51.11169        18.27008         0.12699
H         49.07948        16.99710        -0.17168
H         51.17317        55.01116         0.55665
H         49.13534        56.26033         0.92204
H         52.66367        19.23829         0.89975
H         52.75778        54.04584         0.33298
H         54.74564        20.47163         1.02137
H         54.62225        52.97251        -0.79629
H         58.36736        22.90834         1.65253
H         56.39766        21.53005         1.38744
H         58.19077        50.88874        -1.32920
H         56.12593        52.09528        -1.79604
H         59.71601        24.02342         2.41771
H         59.71660        49.92517        -0.38726
H         61.67108        25.42044         2.96227
H         61.70874        27.82952         2.39738
H         61.35731        29.80606         2.43674
H         61.59693        32.07538         1.52520
H         61.93485        33.88361         0.58740
H         61.92034        36.17702        -0.19109
H         62.05797        37.76879        -1.31274
H         62.09751        40.02357        -2.17542
H         61.95949        41.87808        -1.40737
H         61.94211        44.27770        -0.92225
H         62.00267        46.27544        -0.62501
H         61.86759        48.70972        -0.40467
