         276
 CSIRO Nanostructure Databank - Neutral Graphene Oxide Data Set
C        -11.29157         0.49760        -0.56737
C        -10.06864         1.31047        -0.59782
C         -8.81709         0.45795        -0.60555
C         -7.52253         1.22450        -0.72085
C         -6.34617         0.59637        -0.50092
C         -5.06498         1.34464        -0.68592
C         -3.73873         0.60424        -0.56275
C         -2.47415         1.06534        -1.24776
C         -1.17053         0.30894        -1.05661
C          0.21918         0.99284        -1.52816
C          1.29191         0.53085        -0.47023
C          2.73346         1.02605        -0.77499
C          3.74733         0.68756         0.40281
C          5.12593         1.27118         0.19001
C          6.31246         0.60747         0.21831
C          7.60974         1.29570         0.43623
C          8.86263         0.61872         0.08759
C         10.03663         1.34627         0.06462
C         11.30401         0.63555        -0.06514
C        -10.03788         2.66256        -0.56592
C         -8.72526         3.38102        -0.32998
C         -7.59986         2.66612        -1.06012
C         -6.37345         3.36648        -1.52429
C         -5.08553         2.50025        -1.68346
C         -3.77254         3.30053        -1.65915
C         -2.47823         2.48236        -1.87647
C         -1.15203         3.27343        -1.54679
C          0.17594         2.55173        -1.58701
C          1.52347         3.36185        -1.43763
C          2.78953         2.55438        -1.03631
C          3.96645         3.37324        -0.58373
C          5.08926         2.74531         0.18188
C          6.33005         3.52733         0.39499
C          7.62877         2.81179         0.60178
C          8.88796         3.52895         0.32194
C         10.02981         2.79722         0.15256
C         -8.71644         4.85918        -0.58461
C         -7.54860         5.55556        -0.88082
C         -6.30532         4.89363        -1.49434
C         -5.04770         5.38521        -0.75044
C         -3.75717         4.75388        -1.30396
C         -2.42811         5.43403        -1.01672
C         -1.27940         4.51036        -0.62227
C          0.04035         5.24973        -0.28372
C          1.37974         4.63350        -0.58780
C          2.58796         5.58201        -0.64922
C          3.91271         4.85746        -0.46430
C          5.03999         5.56952        -0.20518
C          6.40547         4.92119        -0.18698
C          7.49678         5.66197         0.61667
C          8.89399         5.05945         0.27842
C         -7.49717         6.94319        -0.64791
C         -6.24789         7.70145        -0.68969
C         -4.96895         6.90724        -0.79011
C         -3.74394         7.45359        -0.12130
C         -2.42798         6.83052        -0.47698
C         -1.22113         7.41088         0.14848
C          0.00372         6.71407         0.08989
C          1.19480         7.40151         0.40773
C          2.52669         6.69763         0.40838
C          3.70453         7.62887         0.23281
C          5.00222         7.07519        -0.29825
C          6.21902         7.78855         0.25567
C          7.39933         7.16189         0.48882
C         -6.18620         9.05994        -0.08942
C         -5.05192         9.58702         0.40680
C         -3.78222         8.82644         0.47715
C         -2.50431         9.48779         0.68403
C         -1.28601         8.77930         0.59758
C         -0.07344         9.44424         0.90306
C          1.16281         8.78982         0.76627
C          2.37157         9.53065         0.92955
C          3.62454         8.97416         0.58472
C          4.84041         9.78607         0.59751
C          6.06600         9.22490         0.45222
C        -11.29451        -0.69124         0.07694
C        -10.12930        -1.10567         0.91236
C         -8.82589        -0.42065         0.65195
C         -7.48174        -0.94332         1.17669
C         -6.42026        -0.85345        -0.00715
C         -4.99663        -1.27306         0.57179
C         -3.95339        -0.85121        -0.37201
C         -2.21846        -1.21926         0.89953
C         -1.18532        -1.05461        -0.24198
C          0.12341        -1.54672         0.38497
C          1.32124        -1.04879        -0.39775
C          2.64069        -1.62412         0.16580
C          3.79309        -0.82219         0.76463
C          5.06631        -1.58009         0.38293
C          6.35329        -0.86309         0.11532
C          7.64098        -1.57963         0.29538
C          8.86401        -0.86495        -0.24507
C         10.16036        -1.52660         0.16475
C         11.36643        -0.71764         0.04042
C        -10.11440        -2.47770         1.59904
C         -8.79386        -3.18161         1.31679
C         -7.53566        -2.41494         1.60030
C         -6.24647        -3.17382         1.68553
C         -4.92337        -2.50342         1.41006
C         -3.65581        -3.29083         1.48057
C         -2.45762        -2.68502         1.22874
C         -1.15273        -3.39921         1.43449
C          0.12603        -2.75896         1.02026
C          1.29004        -3.72942         0.75540
C          2.63773        -3.02647         0.67723
C          3.89689        -3.60887         1.27270
C          5.14157        -2.94336         0.90578
C          6.45733        -3.59745         1.25308
C          7.67902        -2.85155         0.74805
C          8.95176        -3.66385         0.75265
C         10.18878        -2.82598         0.54612
C         -8.73045        -4.43303         0.82402
C         -7.40063        -5.05229         0.43635
C         -6.31139        -4.65881         1.43345
C         -5.06573        -5.48147         1.54250
C         -3.72758        -4.79540         1.90771
C         -2.55758        -5.45703         1.18178
C         -1.21182        -4.90277         1.52850
C          0.01911        -5.80037         1.50216
C          1.34024        -5.08255         1.49210
C          2.59716        -5.86618         1.20854
C          3.91193        -5.13149         1.28827
C          5.17076        -5.86413         0.88253
C          6.47203        -5.08891         0.79346
C          7.51179        -5.54367        -0.17665
C          8.78459        -4.71885        -0.37987
C         -7.47854        -6.51697         0.11126
C         -6.40175        -7.44691         0.35248
C         -5.09742        -6.91051         1.00454
C         -3.82410        -7.61563         0.62381
C         -2.61688        -6.74511         0.43532
C         -1.33102        -7.40365        -0.02488
C         -0.08765        -7.15642         0.83432
C          1.15200        -7.77060         0.22512
C          2.50497        -7.18066         0.50794
C          3.60101        -7.41112        -0.51457
C          4.99452        -7.09633         0.02215
C          6.12674        -7.51112        -0.87756
C          7.34201        -6.66836        -0.91373
C         -6.31031        -8.68625        -0.45665
C         -5.18560        -9.42099        -0.56442
C         -3.86771        -8.96972        -0.05470
C         -2.65948        -9.39812        -0.81394
C         -1.47320        -8.78688        -0.60882
C         -0.39962        -8.44211        -1.61454
C          1.00713        -8.48377        -1.07898
C          2.08576        -8.93696        -1.75152
C          3.48949        -8.80737        -1.17723
C          4.58083        -8.91744        -2.22986
C          5.77919        -8.32565        -2.07586
O         -0.39617         3.22191        -2.76258
O         -6.00046        -7.71179         1.76351
O         -6.05349        -5.41487         2.63394
O          0.79621         4.45497         0.71926
O         -6.76231        -1.75819        -0.97677
O         -2.86230        -5.48912        -0.26017
O         -7.42339         2.97193        -2.47755
O         -2.01809         0.09168        -2.23334
O          6.19398        -5.99876         1.90119
O          0.75341        -5.51393         2.73693
O         -1.19306        -4.07961         2.72079
O          5.35720         3.38566         1.48002
O          3.88480         2.87010        -1.95308
O         -0.86511        -7.02218        -1.42039
O          0.49090        -8.34913         1.40079
O          7.65726         1.94796         1.76729
O         -5.44229         7.58846        -1.95252
O         -9.67771         0.03281         1.73864
O         -3.84820         4.34229        -2.68564
O         -2.18335         6.54121        -1.91055
O          5.82880        -8.21468         0.39841
O         -2.40235        -0.32070         1.71847
O          5.54690        -1.39422        -0.99189
O         -3.91820         7.54697         1.32381
O         -4.81547        -1.14125         1.97644
O          1.14534        -1.60915        -1.69565
O         -4.22694         1.46757         0.49255
O          3.94997        -4.36473         2.52658
O         -6.92998        -2.71572         2.89788
O          3.06707        -2.71490        -0.69549
O         -3.63213        -8.83900         1.38548
O          2.80401        -7.13829         1.91389
O         -3.56335        -4.90561         3.31378
H         -4.45478        -4.86092         3.72841
O          3.17582         0.36456        -1.95389
H          2.66150        -0.47336        -2.08800
O         -6.99038        -4.46707        -0.83685
H         -7.00706        -3.45443        -0.81102
O          1.82530         3.86859        -2.75621
H          1.99085         3.10346        -3.34834
O         -1.75667         3.93534         0.62234
H         -0.97033         3.66129         1.15082
O          0.50353         0.56924        -2.83933
H          0.70622        -0.41197        -2.77937
O        -11.21400        -3.26729         1.15958
H        -11.15266        -3.38112         0.18903
O          8.76252        -1.00481        -1.70065
H          9.56031        -0.59284        -2.09579
O          3.34028        -6.40896        -1.53308
H          3.80634        -6.66391        -2.35825
O          2.71034         6.05182         1.70349
H          2.57698         6.72487         2.40302
O         -5.19936         4.98398         0.62192
H         -4.65304         5.55626         1.20555
O         -7.12822        -0.10656         2.26390
H         -6.61092        -0.63978         2.91104
O          5.03547         7.36296        -1.74331
H          4.14291         7.09762        -2.09609
O          7.23451         5.37163         2.01096
H          7.84069         5.90685         2.56334
O          8.76797        -4.08896        -1.66166
H          8.44257        -3.16233        -1.58905
O         -1.40776        -2.07191        -1.23225
H         -0.52455        -2.13030        -1.71718
O         -6.24484         5.33509        -2.85458
H         -6.83757         4.74993        -3.37575
O          0.98736        -4.18097        -0.59307
H          1.15608        -3.39676        -1.19890
O         -3.80129        -1.63347        -1.41387
H         -3.15944        -1.22616        -2.06930
O         -2.51434         2.26323        -3.28941
H         -1.65634         1.86616        -3.56199
O          6.81793         4.82814        -1.57844
H          6.42373         5.59703        -2.05183
O          9.36152         5.52546        -0.98618
H          8.68842         5.25961        -1.65591
O          6.56391        -3.58459         2.70357
H          5.83010        -4.15244         3.05213
O         -8.92291        -0.42500        -1.74509
H         -8.10518        -1.00410        -1.74443
O          3.70559        -0.96421         2.19590
H          3.37765        -0.10930         2.56571
O          2.56535         6.24173        -1.93721
H          2.40094         5.53506        -2.61648
O         -5.13968         1.85068        -2.96121
H         -4.86121         2.50191        -3.64161
O          0.77145         1.07729         0.75136
H          1.49324         1.16960         1.41847
O         -8.44120         3.26746         1.10365
H         -8.79971         2.41384         1.43474
O          3.67360        -9.82867        -0.18753
H          4.53447        -9.65143         0.26254
O          3.24316         1.39852         1.57512
H          3.93938         1.99244         1.94267
O          9.10410        -4.39033         1.98522
H          8.33289        -4.19902         2.57193
H         12.34037        -1.22816         0.07422
H         12.22693         1.22852        -0.14007
H         10.98707         3.31817        -0.00070
H          9.62355         5.42777         1.04939
H          8.26606         7.75675         0.82349
H          6.97387         9.83697         0.56163
H          4.73961        10.86301         0.79528
H          2.30797        10.58994         1.21775
H         -0.09843        10.50163         1.20321
H         -2.48800        10.55637         0.94079
H         -5.05006        10.61204         0.80692
H         -7.11524         9.65014        -0.07734
H         -8.38102         7.43900        -0.21561
H         -9.59461         5.43385        -0.24516
H        -10.97323         3.24281        -0.52777
H        -12.20098         0.87033        -1.06221
H        -12.20290        -1.31071         0.11086
H        -10.22275        -2.34212         2.70442
H         -9.65691        -4.99220         0.62092
H         -8.16785        -6.77032        -0.71137
H         -7.23076        -9.02529        -0.95595
H         -5.19689       -10.33332        -1.18036
H         -2.76464       -10.19720        -1.56339
H         -0.51127        -8.80030        -2.66267
H          1.96031        -9.41110        -2.73863
H          4.39011        -9.53659        -3.12040
H          6.55565        -8.44160        -2.84828
H          8.11919        -6.94378        -1.64405
H          9.66081        -5.41792        -0.35492
H         11.15050        -3.30710         0.78238
