         321
 CSIRO Nanostructure Databank - Neutral Graphene Oxide Data Set
C         30.43499        57.10450        -0.73853
C         30.42614        58.50936        -0.92648
C         29.28672        59.19255        -1.43092
C         30.49315        61.29923        -1.39921
C         29.32968        60.56551        -1.65378
C         32.81662        52.87185        -0.10886
C         32.74566        54.28012         0.04059
C         31.60905        54.99723        -0.29855
C         32.74537        57.18598         0.09974
C         31.57458        56.43215        -0.27889
C         32.73343        58.58670        -0.07603
C         31.60869        59.25390        -0.62756
C         32.85526        61.39664        -0.68465
C         31.64988        60.66973        -0.88391
C         35.24833        48.58117        -0.26602
C         35.21913        49.98254        -0.14744
C         34.03564        50.74432        -0.14192
C         35.21362        52.87766         0.47739
C         34.00116        52.14261         0.10570
C         35.20104        54.24465         0.57913
C         33.89392        54.99824         0.70844
C         35.16738        57.17033         0.55576
C         33.97210        56.49089         0.42927
C         35.19605        58.63800         0.64846
C         33.89232        59.39365         0.32597
C         35.24479        61.44310        -0.06792
C         34.00498        60.78796        -0.14794
C         37.67506        44.29519         0.35870
C         37.67212        45.68035         0.16461
C         36.46759        46.45102         0.03440
C         37.73961        48.52345        -0.51357
C         36.45810        47.82444        -0.22056
C         37.75748        50.06971        -0.33076
C         36.49331        50.66593         0.20582
C         37.76267        52.85553         0.69868
C         36.48078        52.11550         0.63292
C         37.75350        54.29926         0.97063
C         36.43121        55.02029         0.87991
C         37.72835        57.18917         0.73616
C         36.47870        56.44381         0.34782
C         37.75143        58.69760         0.86486
C         36.45387        59.37384         0.49973
C         37.72031        61.46549         0.18245
C         36.45984        60.75372         0.23294
C         40.18161        40.01280         0.58778
C         40.14735        41.42575         0.56504
C         38.92509        42.15050         0.55671
C         40.14842        44.26541         0.42568
C         38.89392        43.55193         0.44374
C         40.17525        45.67033         0.23126
C         38.94171        46.36955         0.04051
C         40.24865        48.24030        -0.68950
C         38.96921        47.70517        -0.40006
C         40.21547        50.39666        -0.51155
C         38.99467        50.85504        -0.07922
C         40.21968        52.92694         0.56780
C         38.96233        52.20181         0.47402
C         40.22436        54.36039         0.73868
C         38.99577        55.07026         0.81180
C         40.19932        57.25332         0.67546
C         38.95301        56.50904         0.76788
C         40.21358        58.61098         0.33132
C         38.89403        59.28768         0.03784
C         40.18646        61.46911         0.08311
C         38.94154        60.80009         0.14446
C         42.69762        35.78797         0.44813
C         42.62456        37.17061         0.18060
C         41.46072        37.88729         0.46500
C         42.60042        40.05015         0.17634
C         41.39147        39.31589         0.38737
C         42.65282        41.43492         0.45006
C         41.39796        42.14554         0.58090
C         42.59746        44.30300         0.84320
C         41.36553        43.54868         0.57836
C         42.63790        45.72219         0.53218
C         41.44311        46.38106         0.21918
C         42.71143        48.60171        -0.31023
C         41.44651        47.75771        -0.18554
C         42.60475        50.07386         0.12856
C         41.47178        50.85758         0.01933
C         42.68026        52.93316         0.51439
C         41.44115        52.24269         0.44452
C         42.66916        54.34724         0.56635
C         41.45431        55.06078         0.72534
C         42.61138        57.15879         0.15696
C         41.50163        56.55719         0.97958
C         42.67866        58.62057        -0.23509
C         41.40359        59.34185         0.10243
C         42.68222        61.46268        -0.03039
C         41.42352        60.77089         0.03144
C         45.22506        32.98454         0.43083
C         43.97100        33.67025         0.55123
C         45.13649        35.72774        -0.11939
C         43.88351        35.03638         0.29908
C         45.08906        37.16639        -0.53194
C         43.71333        37.85595        -0.63380
C         45.10441        40.09807        -0.33005
C         43.78708        39.36493        -0.36697
C         45.14760        41.47840         0.20995
C         43.91294        42.12083         0.52984
C         45.20917        44.28529         0.95168
C         43.91833        43.52104         0.95680
C         45.19559        45.73149         0.67223
C         43.89260        46.49894         0.83405
C         45.11702        48.56778         0.33155
C         43.93322        47.90292         0.26683
C         45.15079        50.02740         0.57454
C         43.84190        50.77014         0.57720
C         45.14828        52.93648         0.43776
C         43.91497        52.24421         0.45630
C         45.16694        54.37455         0.27061
C         43.88712        55.01702         0.25654
C         45.46383        57.40752        -0.16311
C         43.63020        56.34362        -0.21807
C         45.24525        58.68178         0.27176
C         43.88280        59.33327         0.45523
C         45.16257        61.49735         0.19532
C         43.92173        60.82089         0.14897
C         46.40723        33.65508         0.32916
C         47.62686        35.82863        -0.14785
C         46.42283        35.15911         0.44564
C         47.60763        37.20216        -0.41245
C         46.35309        37.93879        -0.41790
C         47.60499        40.04766        -0.34431
C         46.37061        39.32487        -0.35757
C         47.61682        41.45346        -0.11631
C         46.40019        42.11585         0.27434
C         47.70415        44.30397         0.36779
C         46.49488        43.53048         0.68900
C         47.66562        45.69078         0.44968
C         46.38881        46.38244         0.49742
C         47.62092        48.53513         0.65586
C         46.41015        47.83732         0.09894
C         47.63542        50.02080         0.79027
C         46.40275        50.79666         0.54848
C         47.62011        52.94771         0.67332
C         46.39543        52.19787         0.53645
C         47.62579        54.34151         0.60372
C         46.43571        55.07815         0.28286
C         47.71650        57.20641         0.56832
C         46.55266        56.54000         0.23428
C         47.71462        58.65195         0.85000
C         46.40128        59.41878         0.81707
C         47.65467        61.51408         0.43671
C         46.41698        60.87043         0.49707
C         48.81518        37.92761        -0.61317
C         50.03970        40.07316        -0.70953
C         48.83704        39.33831        -0.57359
C         50.06157        41.48009        -0.56793
C         48.84791        42.17360        -0.22084
C         50.10894        44.29065        -0.17604
C         48.90906        43.59115        -0.00642
C         50.21003        45.72777         0.26477
C         48.89323        46.46621         0.27909
C         49.96057        48.68537        -0.28847
C         48.89673        47.82937         0.36065
C         50.17361        50.05426         0.33963
C         48.95231        50.73063         0.84237
C         50.17669        52.95204         0.62917
C         48.90684        52.22935         0.86831
C         50.17909        54.30695         0.83278
C         48.89121        55.07348         1.08084
C         50.20237        57.26833         0.74584
C         48.99432        56.44827         0.41714
C         50.18070        58.67247         0.57602
C         48.95532        59.40387         0.64988
C         50.16089        61.49409         0.34274
C         48.92459        60.81689         0.50748
C         51.26479        42.21252        -0.74162
C         52.50971        44.36249        -0.73951
C         51.31281        43.61366        -0.56587
C         52.51922        45.78971        -0.70495
C         51.31570        46.47817        -0.42606
C         52.56061        48.68977        -0.67261
C         51.23479        47.91961        -0.61539
C         52.59183        50.09099        -0.20651
C         51.35580        50.75970         0.20617
C         52.62748        52.87687         0.48170
C         51.40854        52.19970         0.47779
C         52.70384        54.30790         0.61418
C         51.45896        55.01208         0.95255
C         52.69247        57.19066         0.40259
C         51.47816        56.56700         0.90710
C         52.59117        58.59995        -0.00754
C         51.39537        59.37752         0.32775
C         52.65180        61.49010         0.12676
C         51.39789        60.79738         0.24231
C         53.74446        46.52376        -0.85362
C         55.03498        48.62045        -0.56850
C         53.81317        47.90681        -0.67033
C         55.06594        50.00687        -0.32621
C         53.81880        50.70755        -0.06395
C         55.19188        52.83176         0.39788
C         53.88309        52.10242         0.41994
C         55.25301        54.35320         0.51538
C         53.89244        55.03323         0.46246
C         55.12888        57.16754        -0.02746
C         53.87897        56.46324         0.29514
C         55.15099        58.61006        -0.05386
C         53.90548        59.36511        -0.19158
C         55.13341        61.48250         0.11476
C         53.88188        60.82581         0.03162
C         56.29425        50.72499        -0.34076
C         57.57254        52.83540        -0.30043
C         56.38245        52.11200        -0.12633
C         57.59522        54.26061        -0.34061
C         56.24780        54.95979        -0.48569
C         57.53810        57.19127        -0.54508
C         56.29370        56.46263        -0.29710
C         57.59131        58.63120        -0.23930
C         56.36377        59.32719        -0.06850
C         57.59530        61.45619        -0.02812
C         56.35432        60.77853         0.01030
C         58.78169        54.96219        -0.34156
C         60.15384        57.12133        -0.30934
C         58.84344        56.40514        -0.59505
C         60.07139        58.63451        -0.36564
C         58.81991        59.32596        -0.25227
C         60.05633        61.46549        -0.22291
C         58.81142        60.76474        -0.15372
C         61.24664        59.35991        -0.43444
C         61.23691        60.77850        -0.37943
O         44.39700        50.29566         1.84784
O         40.28898        49.39567        -1.48262
O         36.98375        54.76256         2.18635
O         43.16417        43.88472         2.16002
O         47.48103        49.10431         1.97366
O         53.11556        58.90818        -1.34585
O         46.96343        59.01796         2.09579
O         49.06666        51.45470         2.11713
O         54.70919        52.24061         1.65356
O         44.58922        56.85338        -1.10813
O         58.20205        56.82271        -1.84357
O         37.62495        49.46150        -1.63896
O         36.48360        51.01203         1.62878
O         34.32290        59.18646         1.70406
O         51.59489        55.82580         2.16528
O         46.04712        43.83162         2.06924
O         51.77816        48.41872        -1.89448
O         45.21243        36.07483        -1.52313
O         44.31586        40.03927        -1.57849
O         38.01596        59.01702         2.26097
H         37.23725        58.74235         2.78992
O         46.41958        35.48979         1.88233
H         47.20502        35.06625         2.28805
O         33.59865        54.94884         2.14933
H         33.58328        54.00568         2.41861
O         50.60467        45.67168         1.69114
H         49.88695        45.21027         2.17641
O         43.00079        48.68077        -1.74768
H         42.18148        49.01398        -2.18225
O         48.73561        55.28220         2.49675
H         48.80999        54.41737         2.95180
O         43.79786        46.71548         2.28971
H         43.71826        45.82296         2.70450
O         49.30775        49.00493        -1.57927
H         50.04111        49.04648        -2.24376
O         38.57495        58.96074        -1.35162
H         39.30672        59.29592        -1.91275
O         61.14705        56.64011        -1.22580
H         60.80186        56.78134        -2.13217
O         49.14982        56.14673        -1.02050
H         49.18512        56.99553        -1.51101
O         36.60437        56.28022        -1.11731
H         37.00161        57.10546        -1.47737
O         46.57156        47.87046        -1.35927
H         47.49177        48.15904        -1.57631
O         55.79378        54.65087         1.82656
H         55.36390        54.02610         2.45460
O         43.24949        37.71281        -1.99487
H         43.76055        38.35457        -2.53766
O         42.81606        58.75485        -1.67061
H         43.54941        58.15214        -1.94270
O         43.62754        59.21101         1.87665
H         44.43432        59.47865         2.36606
O         55.74975        54.69528        -1.82041
H         56.33964        55.16357        -2.45014
O         41.79191        56.75479         2.40001
H         41.02552        56.42252         2.91276
H         29.54108        56.52309        -1.01031
H         28.37126        58.62418        -1.64885
H         30.51462        62.38004        -1.59985
H         28.44185        61.08044        -2.04713
H         31.93030        52.33943        -0.48752
H         30.72583        54.46168        -0.68050
H         32.89708        62.45402        -0.98651
H         34.29228        48.03558        -0.29359
H         33.08623        50.24231        -0.38357
H         35.30368        62.50220        -0.36057
H         36.71884        43.75336         0.41067
H         35.50536        45.93584         0.17847
H         37.69701        62.56551         0.14748
H         39.24382        39.44688         0.68677
H         37.97793        41.59115         0.58412
H         40.19512        62.57028         0.08386
H         41.80651        35.28785         0.86014
H         40.58482        37.34708         0.85713
H         42.66059        62.55911        -0.13718
H         45.22002        31.88429         0.44470
H         43.06803        33.09973         0.81234
H         45.17310        62.57722        -0.02562
H         47.35930        33.10868         0.24994
H         48.59507        35.30368        -0.12030
H         47.68175        62.59370         0.22130
H         49.76210        37.37563        -0.70580
H         50.97673        39.53758        -0.92176
H         50.16194        62.59065         0.25129
H         52.18247        41.67123        -1.01648
H         53.44368        43.83029        -0.97228
H         52.64769        62.58836         0.19541
H         54.67961        45.95349        -0.95950
H         55.98292        48.07328        -0.67908
H         55.15808        62.57512         0.24138
H         57.20740        50.17909        -0.62350
H         58.50788        52.28735        -0.49303
H         57.60511        62.55568         0.01147
H         59.72763        54.43389        -0.14747
H         60.49847        56.82561         0.71908
H         60.05283        62.56297        -0.15589
H         62.20290        58.82548        -0.52296
H         62.18946        61.32335        -0.43944
