         640
 CSIRO Nanostructure Databank - Neutral Graphene Oxide Data Set
C         23.08604        27.80297        -1.69729
C         23.07512        29.14712        -1.47635
C         23.09915        32.09773        -0.96017
C         23.14071        33.44872        -0.84899
C         23.22446        36.37101        -0.19552
C         23.17040        37.63355         0.45894
C         22.90310        40.16731         1.79673
C         22.92513        41.49283         1.54194
C         22.91224        44.33539         0.85185
C         22.90366        45.67087         0.52282
C         25.50594        24.93559        -1.90839
C         24.31995        25.65477        -1.92410
C         25.53913        27.70149        -1.40800
C         24.31349        27.04367        -1.67597
C         25.54271        29.13428        -1.09614
C         24.28269        29.88515        -1.18699
C         25.58010        31.93733        -0.75553
C         24.27872        31.26227        -0.98777
C         25.64609        33.42865        -0.66539
C         24.40790        34.27768        -0.95313
C         25.48972        36.01815         0.57530
C         24.35681        35.55329        -0.11946
C         25.40524        37.21473         1.48561
C         24.18815        38.06823         1.26515
C         25.42714        40.15907         1.78640
C         24.15323        39.37347         2.03022
C         25.39862        41.59251         1.67906
C         24.15277        42.25427         1.45804
C         25.35377        44.38497         1.10580
C         24.12917        43.64756         1.14544
C         25.31779        45.77714         0.83389
C         24.10876        46.42340         0.51188
C         25.24939        48.53281        -0.02161
C         24.11288        47.79418         0.05469
C         28.05419        23.45766        -2.00042
C         28.00849        24.82598        -1.63604
C         26.74503        25.57578        -1.66551
C         28.03747        27.72122        -1.25595
C         26.74156        26.96333        -1.41163
C         27.88617        28.88112        -0.26657
C         26.68679        29.72335        -0.61807
C         27.99263        31.82749        -0.08687
C         26.65340        31.12252        -0.06586
C         27.99526        33.24431         0.15164
C         26.79530        34.00388         0.06287
C         27.93612        35.97103         1.01497
C         26.73855        35.32312         0.56026
C         27.92646        37.36506         1.36504
C         26.68465        38.03747         1.48532
C         27.90335        40.15085         1.93738
C         26.63260        39.43454         1.70414
C         27.87158        41.65814         2.01210
C         26.61361        42.35219         1.67363
C         27.83671        44.49634         1.29951
C         26.60932        43.73500         1.38504
C         27.84097        45.85395         0.98085
C         26.55105        46.57022         0.95146
C         27.81888        48.68795         0.23975
C         26.51780        48.03748         0.53727
C         27.83047        50.03748        -0.25243
C         30.44132        23.31701        -1.51012
C         29.22641        22.72678        -1.94265
C         30.42490        24.69292        -1.13332
C         29.20570        25.44946        -1.21049
C         30.33483        27.46464        -0.33939
C         29.22043        26.85656        -0.88254
C         30.36929        28.90266        -0.07765
C         29.19135        29.64469        -0.15805
C         30.43970        31.74120         0.16966
C         29.19198        31.07777        -0.02512
C         30.48669        33.25004         0.12498
C         29.19474        33.91568         0.50848
C         30.39424        35.95407         1.24322
C         29.17350        35.26638         0.93217
C         30.41598        37.33827         1.41302
C         29.17694        38.07353         1.48373
C         30.40126        40.22319         1.67709
C         29.19402        39.47437         1.69948
C         30.42406        41.63627         1.65387
C         29.17686        42.38791         1.90312
C         30.37656        44.50819         1.12611
C         29.13765        43.85672         1.58808
C         30.30132        45.87014         0.76327
C         29.06363        46.57385         0.74173
C         30.27946        48.75140         0.37068
C         29.01276        47.98744         0.42561
C         30.26937        50.22044        -0.03984
C         28.97413        50.75113        -0.45634
C         32.86648        20.44230        -1.51710
C         31.71943        21.16511        -1.67397
C         32.88440        23.27017        -1.18557
C         31.68673        22.59657        -1.47766
C         32.85709        24.61387        -0.72013
C         31.62205        25.29761        -0.65974
C         32.83599        27.37240         0.22995
C         31.53904        26.65068        -0.08043
C         32.82566        28.84687         0.31904
C         31.62523        29.56006         0.21951
C         32.84829        31.69202         0.61828
C         31.63245        31.00964         0.32698
C         32.84077        33.08932         0.89285
C         31.68236        33.82585         0.81153
C         32.90977        35.91633         1.31018
C         31.62870        35.14754         1.53526
C         32.87761        37.36972         1.31223
C         31.68219        38.04131         1.49443
C         32.91907        40.24613         1.39122
C         31.70532        39.49561         1.88867
C         32.88366        41.65394         1.27452
C         31.62949        42.37173         1.39754
C         32.84868        44.49833         0.88732
C         31.60092        43.78012         1.13831
C         32.82936        45.86049         0.59618
C         31.55101        46.53595         0.34697
C         32.82453        48.77433         0.06018
C         31.54610        48.01624         0.10591
C         32.78809        50.17300        -0.28809
C         31.54815        50.85979        -0.45698
C         32.75766        52.88398        -1.05482
C         31.55869        52.19307        -0.87278
C         35.37589        18.92643        -1.20148
C         35.32636        20.36308        -1.23779
C         34.14480        21.07684        -1.34506
C         35.39770        23.19212        -0.79766
C         34.19898        22.58660        -1.50374
C         35.34223        24.59752        -0.41454
C         34.10477        25.29490        -0.37849
C         35.30989        27.40780         0.01975
C         34.09992        26.67387        -0.05288
C         35.27138        28.81695         0.37751
C         34.08034        29.50066         0.56621
C         35.33286        31.67780         1.06995
C         34.03179        30.90736         1.12227
C         35.34168        33.02381         1.22012
C         34.05041        33.73156         1.54784
C         35.33866        35.90354         0.82708
C         34.07637        35.21815         1.26511
C         35.33843        37.38995         1.09102
C         34.14127        38.08785         1.23633
C         35.35536        40.24288         1.03463
C         34.13043        39.53279         1.23295
C         35.33113        41.64638         0.95554
C         34.10932        42.36834         1.03864
C         35.31559        44.48503         0.51098
C         34.10830        43.79375         0.89789
C         35.32159        45.93510         0.33370
C         34.08373        46.69044         0.75358
C         35.25936        48.78321        -0.04040
C         34.02380        48.09279         0.17982
C         35.26078        50.17821        -0.30167
C         34.01240        50.88204        -0.45236
C         35.23514        53.02259        -0.84011
C         33.99261        52.26800        -0.80199
C         35.30096        54.36213        -1.17998
C         37.82582        18.89590        -0.94921
C         36.54854        18.23405        -1.10534
C         37.85023        20.30544        -0.92778
C         36.63948        21.10996        -1.34515
C         37.78818        23.09388        -0.06891
C         36.56672        22.49274        -0.73341
C         37.83194        24.60112        -0.19827
C         36.56420        25.30385        -0.21639
C         37.80746        27.45799        -0.24635
C         36.53974        26.71392        -0.11795
C         37.80603        28.92006         0.11036
C         36.55931        29.47915         0.69499
C         37.86590        31.67013         1.01683
C         36.59651        30.91822         1.11429
C         37.86895        33.03556         1.22718
C         36.59964        33.75599         1.62685
C         37.80863        35.90082         1.14277
C         36.61802        35.21146         1.21471
C         37.81455        37.34695         0.98001
C         36.59130        38.08084         1.00568
C         37.82815        40.18542         0.74675
C         36.60432        39.50746         0.95089
C         37.83825        41.62361         0.57091
C         36.62025        42.42284         0.96389
C         37.65966        44.41102        -0.31787
C         36.49393        43.77270         0.30459
C         37.68312        45.92740        -0.53201
C         36.47374        46.62225         0.04680
C         37.71949        48.76643        -0.11004
C         36.50021        48.07742        -0.00543
C         37.73331        50.18164        -0.27635
C         36.50109        50.86753        -0.37794
C         37.80385        53.07521        -0.63010
C         36.47195        52.33698        -0.43874
C         37.76103        54.43072        -1.19991
C         36.53118        55.04719        -1.35417
C         40.25726        16.02344        -0.80876
C         39.07199        16.71338        -0.83436
C         40.27269        18.84217        -0.61336
C         39.04015        18.14466        -0.78357
C         40.26290        20.25500        -0.58344
C         39.06666        20.99289        -0.69856
C         40.26409        23.13790        -0.44830
C         39.08183        22.43380        -0.47995
C         40.30837        24.55943        -0.19761
C         39.04572        25.27491        -0.12634
C         40.27144        27.41667         0.01594
C         39.09554        26.73380        -0.13821
C         40.31904        28.92320        -0.14439
C         39.07582        29.60733         0.36807
C         40.33936        31.66340         0.81813
C         39.09183        30.94868         0.74554
C         40.33926        33.06783         1.03648
C         39.09634        33.77634         1.16666
C         40.30371        35.91211         1.09318
C         39.08197        35.19170         1.18527
C         40.30104        37.33323         0.93677
C         39.04749        38.03309         0.87272
C         40.28367        40.10400         0.41796
C         39.05011        39.44700         0.67614
C         40.23679        41.50938         0.01272
C         38.98920        42.26155         0.19693
C         40.22588        44.44652        -0.19525
C         38.99219        43.67532        -0.25588
C         40.20612        45.87048        -0.18302
C         39.00128        46.57715        -0.16766
C         40.25607        48.75394        -0.22222
C         39.00226        48.03589         0.21552
C         40.23737        50.14382        -0.47109
C         38.99847        50.88924        -0.46635
C         40.24083        52.93240        -1.11238
C         39.02661        52.26165        -0.75036
C         40.23717        54.31917        -1.47740
C         39.01849        55.06976        -1.55092
C         40.27914        57.05704        -2.20448
C         39.06569        56.42124        -1.92983
C         42.74263        16.00934        -0.81011
C         41.51257        16.70513        -0.72008
C         42.77605        18.78938        -0.46033
C         41.52557        18.11872        -0.56360
C         42.79250        20.23687        -0.16263
C         41.51024        20.99146        -0.30566
C         42.81928        23.14712        -0.45930
C         41.54218        22.41855        -0.80030
C         42.79021        24.57691        -0.28327
C         41.52988        25.24267        -0.11818
C         42.80746        27.42698         0.14182
C         41.52833        26.66538         0.39287
C         42.79852        28.84491         0.30633
C         41.58197        29.56659         0.36143
C         42.80543        31.65955         0.79683
C         41.57245        30.95199         0.65609
C         42.81059        33.07043         1.02187
C         41.56551        33.78293         1.10771
C         42.76628        35.94459         1.18621
C         41.55446        35.21557         1.14863
C         42.77758        37.34970         1.01822
C         41.52725        38.04181         0.84142
C         42.77069        40.18003         0.50040
C         41.52209        39.44466         0.55825
C         42.78426        41.56913         0.28469
C         41.53209        42.27800        -0.04108
C         42.72639        44.41854        -0.36339
C         41.49298        43.76121         0.25793
C         42.70664        45.91330        -0.14864
C         41.49068        46.59573        -0.12450
C         42.71190        48.73224        -0.38476
C         41.47606        48.03535        -0.22222
C         42.70370        50.12938        -0.63910
C         41.46883        50.83069        -0.72722
C         42.69988        52.88877        -1.36882
C         41.46709        52.22011        -1.06399
C         42.69335        54.22931        -1.78463
C         41.47119        54.95583        -1.81927
C         42.74865        57.01694        -2.37719
C         41.48107        56.34854        -2.15243
C         43.94358        16.69655        -0.84902
C         45.22740        18.87402        -0.92354
C         43.98675        18.10604        -0.70429
C         45.22999        20.24363        -0.83204
C         44.12008        20.97970        -0.13956
C         45.27026        23.16934        -0.54327
C         44.01556        22.45520        -0.47992
C         45.25790        24.61217        -0.36633
C         44.01287        25.29278        -0.18521
C         45.26757        27.43824         0.02106
C         44.01998        26.72977        -0.00357
C         45.27329        28.85869         0.25539
C         44.03969        29.55161         0.42344
C         45.26674        31.66599         0.74665
C         44.03647        30.95816         0.65430
C         45.26731        33.07924         0.98395
C         44.03571        33.76639         1.12019
C         45.28126        35.95034         1.14409
C         44.03145        35.21353         1.53934
C         45.26785        37.36296         1.06354
C         44.00817        38.08124         0.99506
C         45.22381        40.23344         0.76178
C         44.01091        39.49462         0.76407
C         45.23286        41.62799         0.53350
C         43.99866        42.32188         0.30942
C         45.20540        44.45352         0.08599
C         44.00271        43.72973         0.07958
C         45.19840        45.89271        -0.09137
C         43.95890        46.60793        -0.17400
C         45.18901        48.73321        -0.37350
C         43.95597        48.02390        -0.30449
C         45.18656        50.15209        -0.57775
C         43.94520        50.83752        -0.79664
C         45.18950        52.90970        -1.28005
C         43.94964        52.19171        -1.18068
C         45.21731        54.25553        -1.74341
C         43.95837        54.83546        -2.35938
C         43.91500        56.34116        -2.40265
C         47.66432        18.88090        -1.30314
C         46.47183        18.21026        -1.27516
C         47.74107        20.30604        -1.13060
C         46.42385        21.04200        -1.28408
C         47.71626        23.17820        -0.94390
C         46.44094        22.46533        -0.78991
C         47.73008        24.66443        -0.66822
C         46.46552        25.33161        -0.34038
C         47.76484        27.41412        -0.03471
C         46.50046        26.73770        -0.11350
C         47.77871        28.91604        -0.11909
C         46.49174        29.57190         0.31027
C         47.73312        31.66412         0.71609
C         46.49261        30.96146         0.57717
C         47.73434        33.07316         0.93758
C         46.51032        33.78611         1.04203
C         47.71205        35.95807         0.96955
C         46.50296        35.23994         1.08619
C         47.71176        37.36579         0.91040
C         46.49465        38.06938         0.96811
C         47.75662        40.24122         0.71059
C         46.50195        39.55781         1.19599
C         47.72319        41.64961         0.49557
C         46.47320        42.35710         0.45455
C         47.68814        44.48063         0.10586
C         46.45718        43.75867         0.23771
C         47.68089        45.90417        -0.06017
C         46.42362        46.60504        -0.13373
C         47.65371        48.74898        -0.34187
C         46.42054        48.02773        -0.28260
C         47.64794        50.17135        -0.41993
C         46.39833        50.87320        -0.57503
C         47.60956        53.02593        -0.82534
C         46.39936        52.27745        -0.87329
C         47.60350        54.34542        -1.25508
C         46.42587        54.94054        -1.74813
C         50.23642        20.34791        -1.19699
C         48.94590        20.99487        -0.99522
C         50.15835        23.11998        -0.51419
C         48.97811        22.43276        -0.78493
C         50.17485        24.54804        -0.31159
C         49.00453        25.29906        -0.30030
C         50.23805        27.40825         0.21775
C         48.98968        26.72213        -0.04134
C         50.23558        28.81603         0.52449
C         49.00349        29.55675         0.47973
C         50.17332        31.64078         1.15768
C         48.95533        30.92111         0.75499
C         50.19938        33.10273         0.98928
C         48.98674        33.77460         0.97353
C         50.13707        35.87139         0.29429
C         49.03301        35.26414         1.14866
C         50.13585        37.37481         0.45554
C         48.98039        38.07587         0.71016
C         50.18295        40.22954         0.32871
C         48.95660        39.52953         0.59866
C         50.17530        41.64752         0.22122
C         48.93774        42.35653         0.27184
C         50.15140        44.47850        -0.09286
C         48.92181        43.77617         0.10404
C         50.14514        45.89911        -0.20292
C         48.90220        46.61157        -0.16444
C         50.10158        48.77839        -0.39009
C         48.90017        48.05344        -0.28933
C         50.09467        50.19444        -0.47691
C         48.86691        50.88807        -0.41850
C         50.12871        53.05855        -0.42121
C         48.81373        52.37865        -0.16983
C         51.39395        20.98760        -0.93412
C         52.69590        23.06535        -0.21191
C         51.39002        22.29358        -0.18254
C         52.68368        24.43759         0.01875
C         51.49260        25.28776        -0.33411
C         52.66745        27.35057         0.55927
C         51.46024        26.69023         0.25607
C         52.70406        28.77576         0.76369
C         51.45997        29.47084         0.78123
C         52.72970        31.65350         1.00916
C         51.48067        30.89063         1.15443
C         52.70229        33.07185         0.92509
C         51.45963        33.79676         0.88704
C         52.67577        35.87448         0.44871
C         51.46625        35.18916         0.60263
C         52.67681        37.29856         0.05101
C         51.36526        38.06854         0.06084
C         52.63852        40.20624         0.03220
C         51.40762        39.53024         0.15995
C         52.63626        41.63442        -0.03345
C         51.40357        42.34208         0.01402
C         52.60321        44.46070        -0.36075
C         51.38633        43.76453        -0.13838
C         52.56355        45.87143        -0.56144
C         51.37560        46.58753        -0.41617
C         52.45570        48.77592        -1.20744
C         51.44225        48.09202        -0.26803
C         52.54601        50.24898        -0.84270
C         51.35015        50.93036        -0.60381
C         51.28928        52.37709        -0.54140
C         55.15376        23.09937        -0.25895
C         53.93582        22.38879        -0.26088
C         55.19828        24.43719         0.08987
C         53.93109        25.09664         0.40416
C         55.20668        27.30472         0.76247
C         53.90926        26.57982         0.74631
C         55.15265        28.68507         1.38787
C         53.92156        29.48445         0.98541
C         55.17448        31.67035         1.00744
C         53.94927        30.92316         1.01509
C         55.17702        33.07888         0.84052
C         53.93526        33.79036         0.79291
C         55.15669        35.93399         0.50540
C         53.92607        35.20307         0.60233
C         55.14712        37.36605         0.33905
C         53.92453        38.07059         0.16315
C         55.12253        40.21448         0.05441
C         53.89408        39.48146         0.05191
C         55.11323        41.64262        -0.07580
C         53.87136        42.35117        -0.15154
C         55.09385        44.48509        -0.39660
C         53.85639        43.76124        -0.32040
C         55.09587        45.88910        -0.63124
C         53.82135        46.55805        -0.93224
C         55.07387        48.77603        -1.02316
C         53.80895        48.04165        -1.21742
C         55.00915        50.18996        -0.90555
C         53.81656        50.88567        -0.84043
C         57.69603        24.52452         0.50559
C         56.47293        25.24346        -0.01461
C         57.65470        27.36936         0.65622
C         56.38249        26.65288         0.55031
C         57.66638        28.75710         0.81850
C         56.46522        29.46098         1.25014
C         57.70265        31.68720         0.78584
C         56.45790        30.97699         1.14912
C         57.66901        33.10833         0.70705
C         56.41308        33.81214         0.73372
C         57.63338        35.96301         0.50752
C         56.39424        35.22987         0.58715
C         57.62066        37.39008         0.40606
C         56.37433        38.09586         0.31688
C         57.59663        40.24743         0.14302
C         56.36049        39.51499         0.16781
C         57.58757        41.66995        -0.00308
C         56.33881        42.36618        -0.11746
C         57.56094        44.51367        -0.34676
C         56.32972        43.78497        -0.27750
C         57.54244        45.92661        -0.55497
C         56.29781        46.62019        -0.72731
C         57.55446        48.73407        -0.94630
C         56.29206        48.05444        -0.91872
C         58.84117        25.21137         0.76062
C         60.09252        27.37371         1.00983
C         58.88358        26.64827         0.71141
C         60.13076        28.73432         0.97722
C         58.93393        29.48470         0.44998
C         60.10349        31.70891         0.48442
C         58.91143        30.98347         0.66289
C         60.09920        33.09574         0.47423
C         58.89364        33.82314         0.57092
C         60.07610        36.01583         0.49604
C         58.87302        35.27071         0.52633
C         60.06351        37.39385         0.43118
C         58.84614        38.11313         0.37000
C         60.03507        40.30428         0.24655
C         58.83333        39.55505         0.25741
C         60.02558        41.67767         0.10792
C         58.81330        42.39553        -0.03120
C         60.00640        44.58288        -0.26457
C         58.80551        43.83180        -0.21008
C         59.99015        45.95292        -0.45147
C         58.76735        46.64720        -0.60360
C         58.74003        48.06283        -0.80766
O         29.28689        43.37821         2.98550
O         32.04015        26.72917         1.29946
O         51.93505        37.54133        -1.21077
O         40.91056        41.83802        -1.26998
O         50.76348        31.18028         2.42433
O         26.43477        47.64324         1.95103
O         37.16896        52.97025         0.68857
O         33.89378        33.51684         2.97366
O         53.84241        47.08407        -2.33170
O         53.83278        25.60227         1.83464
O         36.67115        29.83080         2.11297
O         27.83470        40.86004         3.23851
O         38.18291        43.74397        -1.52129
O         47.73747        24.14199        -2.06698
O         42.01610        20.66735         1.02755
O         37.69638        28.49395        -1.30933
O         56.66826        30.29076         2.46161
O         30.35625        49.79504         1.37563
O         26.08946        32.71001        -1.89309
O         31.43103        47.11173        -1.04519
O         41.57899        43.87613         1.70398
H         41.54467        44.82835         1.93818
O         51.91652        48.73707        -2.54416
H         52.37501        48.00051        -3.01532
O         41.55970        22.27700        -2.26167
H         41.54523        23.17680        -2.65077
O         44.55668        20.99975         1.26375
H         43.73415        21.08405         1.80225
O         51.72096        25.54811        -1.78085
H         50.91095        25.98020        -2.13036
O         51.93466        48.32916         1.08905
H         51.28881        47.94068         1.71596
O         40.33285        29.16390        -1.60247
H         39.42419        28.93448        -1.92409
O         37.65047        22.81573         1.37292
H         36.82880        23.25519         1.67975
O         39.06187        48.02805         1.69815
H         38.98796        48.95973         1.99802
O         36.55208        33.78159         3.08938
H         35.57668        33.72877         3.33800
O         54.95142        28.43065         2.80753
H         55.37326        29.18200         3.28838
O         36.85214        42.75356         2.39659
H         36.81673        41.91082         2.89873
O         59.01642        29.37085        -1.03283
H         59.19197        28.42739        -1.23845
O         36.82406        21.35372        -2.79970
H         36.90401        20.47592        -3.23161
O         24.48469        34.71911        -2.33651
H         24.93481        33.99227        -2.82816
O         31.86043        39.47160         3.36013
H         31.64924        40.36839         3.69803
O         27.61351        28.36134         1.07140
H         28.40816        27.86792         1.37131
O         46.53806        39.71136         2.66828
H         45.73451        39.27674         3.02668
O         37.56549        46.16984        -1.97389
H         37.95619        45.37378        -2.41227
O         51.24601        21.93535         1.23803
H         50.44575        21.37418         1.32089
O         46.26633        21.18036        -2.75115
H         46.92550        21.84328        -3.05335
O         41.47321        26.54502         1.86630
H         40.74223        25.92733         2.08478
O         31.53407        34.77533         2.94362
H         32.40173        34.30850         3.17744
O         56.68644        25.40943        -1.46413
H         57.56298        25.83427        -1.57955
O         33.67654        30.82752         2.54109
H         33.74652        31.77377         2.89904
O         28.34059        28.32896        -2.54617
H         28.39266        27.61136        -3.21145
O         42.62207        44.20946        -1.79884
H         43.40257        44.62093        -2.22465
O         47.88142        29.20374        -1.57797
H         47.08059        28.82822        -2.00338
O         26.26916        30.98820         1.33848
H         26.72103        30.18542         1.68892
O         49.43580        35.51823         2.53224
H         48.80401        35.05841         3.12364
O         44.05589        35.19012         3.02730
H         44.79501        34.60338         3.29566
O         24.16717        39.02374         3.46696
H         24.44911        39.82243         3.96272
O         34.19632        46.90877         2.20880
H         34.40077        46.04349         2.62425
O         30.66445        33.56774        -1.31727
H         29.89800        33.18036        -1.79370
O         43.99658        54.40115        -3.76878
H         43.18156        54.73739        -4.19835
O         35.31729        35.77883        -0.65799
H         36.07250        36.30270        -1.00298
O         25.30379        36.65047         2.84243
H         24.98164        37.38480         3.42445
O         34.41617        22.82804        -2.93404
H         35.28609        22.40878        -3.15723
O         48.56491        52.51981         1.27905
H         49.32157        52.10505         1.74517
O         49.85368        35.60942        -1.10256
H         50.51924        36.12127        -1.62118
H         22.14781        27.27176        -1.91494
H         22.12139        29.69052        -1.52589
H         22.11416        31.60758        -0.98606
H         22.18718        33.99736        -0.82577
H         22.36601        36.06289        -0.80723
H         22.27575        38.25639         0.31140
H         21.94028        39.65167         1.92353
H         21.96701        42.01561         1.41981
H         21.95752        43.79453         0.86553
H         21.95710        46.17160         0.27367
H         25.46755        23.85320        -2.08862
H         23.36970        25.13922        -2.12460
H         25.21706        49.51969        -0.50363
H         23.16674        48.20833        -0.32453
H         27.14411        22.95484        -2.35327
H         26.87365        50.50172        -0.52734
H         29.20459        21.67527        -2.25788
H         28.91974        51.72250        -0.96692
H         32.81003        19.34582        -1.56381
H         30.77876        20.62697        -1.85164
H         32.71362        53.94046        -1.34976
H         30.61407        52.73414        -1.01768
H         34.43555        18.35933        -1.24190
H         34.38227        54.91664        -1.41490
H         36.50686        17.13716        -1.09054
H         36.47757        56.08266        -1.71692
H         40.25651        14.92622        -0.88402
H         38.13483        16.14800        -0.92459
H         40.28987        58.12662        -2.45851
H         38.14175        57.01204        -1.98092
H         42.73361        14.91402        -0.90642
H         42.73621        58.11031        -2.50413
H         44.87308        16.12829        -0.98621
H         44.84717        56.89071        -2.59522
H         48.59110        18.30126        -1.42370
H         46.48016        17.12045        -1.41168
H         48.52254        54.94662        -1.23284
H         46.48587        55.97114        -2.12265
H         50.26025        19.34864        -1.65463
H         50.15941        54.15717        -0.38196
H         52.34784        20.48538        -1.14822
H         52.22097        52.94846        -0.66034
H         56.08162        22.55979        -0.49666
H         53.96646        21.29955        -0.39655
H         55.94021        50.76345        -0.80198
H         53.87225        51.97243        -0.68623
H         57.68719        23.42694         0.56441
H         57.57949        49.81887        -1.11489
H         59.75775        24.67265         1.04557
H         60.98415        26.79963         1.30397
H         61.05670        29.27166         1.22616
H         61.05345        31.17446         0.34735
H         61.05527        33.62013         0.34891
H         61.04556        35.50277         0.53215
H         61.02404        37.92410         0.41306
H         61.00405        39.79911         0.34774
H         60.98662        42.20783         0.10319
H         60.97683        44.08080        -0.15816
H         60.93460        46.51458        -0.48846
H         59.69302        48.60943        -0.85425
