         638
 CSIRO Nanostructure Databank - Neutral Graphene Oxide Data Set
C         23.29737        70.13741         1.53317
C         23.31018        71.54439         1.51596
C         22.18889        72.29577         1.93885
C         23.35624        74.38502         1.52864
C         22.21516        73.69324         1.92868
C         25.52131        65.80982         0.94965
C         25.48752        67.18702         0.77390
C         24.39038        67.97715         1.19009
C         25.59032        70.07736         0.58425
C         24.40551        69.38168         1.09915
C         25.59259        71.52598         0.58459
C         24.49481        72.23806         1.04483
C         25.71432        74.37973         0.83827
C         24.51730        73.69425         1.09511
C         28.06996        61.48232         0.82680
C         28.00685        62.92893         1.27395
C         26.72845        63.66478         0.98311
C         27.95459        65.71256         0.41005
C         26.71974        65.02600         0.75411
C         27.95960        67.21700         0.27965
C         26.58874        67.84362        -0.03085
C         27.87517        70.03765        -0.49736
C         26.67580        69.35022         0.13607
C         28.01618        71.48305        -0.06523
C         26.73328        72.27942        -0.08228
C         28.13529        74.28183         0.50535
C         26.89059        73.68288         0.45905
C         30.61298        57.26421         0.73741
C         30.56371        58.68973         0.81217
C         29.36752        59.38894         0.66981
C         30.49012        61.55769         1.36307
C         29.25820        60.80513         0.89261
C         30.46338        63.00502         0.88184
C         29.24677        63.65631         0.79370
C         30.39651        65.73935         0.00396
C         29.16916        65.04322         0.40047
C         30.35078        67.02844        -0.47105
C         29.04061        67.74875        -0.67573
C         30.37572        69.86794        -0.33688
C         29.16081        69.24383        -0.42400
C         30.46579        71.26378         0.15762
C         29.22142        72.06896         0.17288
C         30.57507        74.14810         0.36936
C         29.35165        73.52280         0.35673
C         33.02983        52.97323         1.10260
C         32.99960        54.38122         1.19684
C         31.81126        55.11718         0.94834
C         32.98166        57.26098         1.53768
C         31.76873        56.52459         1.01536
C         33.02246        58.71091         1.11968
C         31.81929        59.43424         1.00648
C         33.04116        61.60938         1.37111
C         31.78138        60.84226         1.05520
C         32.97999        63.07368         0.92862
C         31.68544        63.71896         0.61959
C         32.87643        65.70646        -0.28119
C         31.66171        65.02822         0.12660
C         32.84849        67.04090        -0.78543
C         31.54058        67.72968        -1.06361
C         32.80560        69.87387        -0.78473
C         31.61424        69.18631        -0.64285
C         32.94171        71.26604        -0.45269
C         31.80927        71.94282         0.22472
C         33.06554        74.11839        -0.15662
C         31.90191        73.44094         0.52498
C         35.44805        48.64761         1.19346
C         35.43303        50.03656         1.16986
C         34.21133        50.80146         1.11253
C         35.48549        52.84678         1.71321
C         34.20467        52.18745         1.24691
C         35.51678        54.35080         1.47978
C         34.24515        55.12536         1.37514
C         35.60867        57.22657         1.21855
C         34.27304        56.49347         1.34228
C         35.47024        58.64567         0.71318
C         34.33832        59.43097         1.32579
C         35.36819        61.47862         0.30672
C         34.27663        60.87128         0.90018
C         35.40150        62.90646         0.07521
C         34.22224        63.72497         0.38970
C         35.30136        65.68986        -0.67615
C         34.11512        65.04700        -0.24568
C         35.28476        67.06969        -1.03284
C         34.02337        67.72556        -1.07608
C         35.25745        69.90426        -1.45401
C         33.94319        69.16984        -1.49699
C         35.23308        71.28806        -1.35174
C         34.08103        71.98036        -0.82166
C         35.36611        74.13808        -1.02259
C         34.14167        73.43157        -0.64468
C         37.94366        44.31602         1.40773
C         37.94434        45.76306         1.80953
C         36.67399        46.51372         1.52799
C         37.93444        48.56114         1.11026
C         36.67786        47.87742         1.28137
C         37.93367        50.00653         0.68372
C         36.69335        50.76859         1.09176
C         37.94895        52.85977         0.84439
C         36.72507        52.13417         1.19166
C         37.92562        54.24297         0.56289
C         36.74238        55.02742         0.95336
C         37.76711        57.08765        -0.14764
C         36.51309        56.37896         0.30792
C         37.65041        58.42783        -0.43277
C         36.50010        59.23350         0.01937
C         37.65232        61.35573        -0.56394
C         36.52001        60.69349        -0.12216
C         37.71323        62.78591        -0.71154
C         36.52120        63.54357        -0.45246
C         37.71953        65.62966        -1.05218
C         36.52691        64.96310        -0.71940
C         37.73438        67.04506        -1.29434
C         36.50175        67.75727        -1.32174
C         37.72047        69.85456        -1.75868
C         36.50187        69.17944        -1.57509
C         37.69339        71.29467        -2.07628
C         36.40846        72.05720        -1.78984
C         37.68620        74.26109        -2.01942
C         36.46174        73.51169        -1.52303
C         40.32225        40.09123         0.63510
C         40.34631        41.47806         0.95932
C         39.16728        42.20269         1.08621
C         40.40295        44.33149         1.37897
C         39.14396        43.62341         1.32251
C         40.40624        45.73494         1.24546
C         39.18180        46.46363         1.31593
C         40.40426        48.55336         0.79120
C         39.16006        47.85959         1.10350
C         40.42722        49.94261         0.68311
C         39.20759        50.71356         1.14529
C         40.31653        52.81498         0.26987
C         39.16740        52.15582         0.71125
C         40.23212        54.15831        -0.15386
C         39.03944        54.89344        -0.01238
C         40.08795        56.90844        -1.00439
C         38.98904        56.31275        -0.42989
C         40.08714        58.37829        -1.38248
C         38.75693        59.10544        -1.14545
C         40.12450        61.27182        -0.96045
C         38.81396        60.59478        -1.06284
C         40.15205        62.71708        -1.03352
C         38.89964        63.44879        -1.05967
C         40.15664        65.57846        -1.25346
C         38.94613        64.88917        -1.13067
C         40.20666        66.99757        -1.39366
C         38.97253        67.72255        -1.47492
C         40.20767        69.82279        -1.76476
C         38.98678        69.15464        -1.67199
C         40.26833        71.28234        -1.97235
C         38.98838        72.05355        -2.13632
C         40.17345        74.12736        -1.56614
C         38.99087        73.50294        -1.82262
C         42.62623        35.90133        -0.39954
C         42.66682        37.25042        -0.03136
C         41.47047        37.98701         0.16131
C         42.79255        39.92253         1.05120
C         41.49251        39.33155         0.55844
C         42.81267        41.43538         1.03318
C         41.64535        42.13057         1.12959
C         42.93760        44.26982         1.18481
C         41.67808        43.56068         1.62649
C         42.91411        45.73897         1.13137
C         41.63818        46.44755         1.00291
C         42.84165        48.49558         0.26594
C         41.63575        47.81415         0.70232
C         42.76212        49.89198        -0.04583
C         41.60761        50.61100         0.26104
C         42.79253        52.76480        -0.31747
C         41.64928        52.11190         0.41014
C         42.67650        54.08027        -0.67171
C         41.33298        54.66636        -1.03741
C         42.63741        56.91802        -0.68997
C         41.41086        56.19807        -1.29527
C         42.47359        58.32718        -0.45577
C         41.14598        59.04959        -0.48727
C         42.52039        61.23256        -0.51603
C         41.27604        60.54608        -0.73723
C         42.50763        62.73265        -0.28752
C         41.34573        63.39919        -0.95512
C         42.65056        65.52413        -0.85117
C         41.43532        64.81281        -1.44589
C         42.69276        66.99604        -1.20466
C         41.46555        67.66453        -1.45934
C         42.70387        69.85105        -1.35868
C         41.51759        69.09354        -1.92191
C         42.67561        71.27277        -1.28188
C         41.47974        72.00635        -1.55411
C         42.62944        74.11293        -1.14152
C         41.44260        73.41743        -1.43798
C         44.94558        33.10452        -1.33373
C         43.76746        33.80606        -1.03719
C         45.07852        35.84721        -0.64158
C         43.81047        35.17130        -0.68839
C         45.14787        37.21555        -0.29240
C         43.94896        37.93964         0.06103
C         45.26793        39.98768         0.46560
C         44.01649        39.26765         0.46244
C         45.33020        41.32762         0.84096
C         44.13628        42.09527         1.39145
C         45.33297        44.28571         0.66147
C         44.12680        43.58961         1.06576
C         45.36222        45.64036         0.35095
C         44.19190        46.46642         0.67830
C         45.27754        48.48964        -0.32797
C         44.07496        47.82646         0.14769
C         45.23493        49.82428        -0.67849
C         43.90143        50.52546        -0.80760
C         45.20824        52.66306        -0.81456
C         44.01611        52.00597        -0.56540
C         45.05534        54.11453        -0.49904
C         43.87879        54.82161        -1.20190
C         45.23931        56.85130        -0.80618
C         43.89910        56.29014        -0.84426
C         45.44178        58.13009        -0.12685
C         43.49763        59.10554         0.05685
C         44.96325        61.16981         0.11699
C         43.64696        60.51254        -0.15639
C         45.00504        62.68958        -0.02561
C         43.83827        63.38303        -0.50423
C         45.14795        65.49258        -0.59161
C         43.96305        64.74150        -1.14693
C         45.21708        66.95737        -0.98401
C         43.89056        67.69400        -1.02273
C         45.04513        69.86062        -0.61541
C         43.88590        69.14516        -1.01449
C         45.06717        71.27701        -0.65944
C         43.86849        71.98887        -0.96258
C         45.06681        74.11839        -0.70465
C         43.85623        73.42533        -0.93574
C         46.17893        33.73773        -1.29505
C         47.51689        35.78000        -0.91445
C         46.27749        35.11849        -0.95224
C         47.60595        37.15251        -0.58137
C         46.40471        37.88491        -0.25677
C         47.73554        39.91611         0.03687
C         46.47731        39.26318         0.07704
C         47.82569        41.31838         0.28424
C         46.61534        42.03379         0.75973
C         47.74163        44.10147        -0.20518
C         46.60613        43.53565         0.62819
C         47.76867        45.61433        -0.23567
C         46.56484        46.32846        -0.10750
C         47.73729        48.41011        -0.70474
C         46.54159        47.74131        -0.37583
C         47.74637        49.83410        -1.00305
C         46.42774        50.51319        -1.31670
C         47.65232        52.73382        -1.36608
C         46.46110        52.02744        -1.12009
C         47.76551        54.17448        -1.40588
C         46.69291        54.99238        -1.90678
C         47.66911        56.96091        -0.68278
C         46.44155        56.29805        -1.31256
C         47.67249        58.46384        -1.02831
C         46.40078        59.03607        -0.45383
C         47.49154        61.16471         0.34741
C         46.28746        60.53484        -0.36232
C         47.46906        62.66621         0.15895
C         46.31716        63.37386        -0.03735
C         47.47257        65.57608         0.20267
C         46.29574        64.83953        -0.13312
C         47.48565        67.01198         0.09659
C         46.31755        67.69308        -0.28483
C         47.51232        69.88317        -0.06190
C         46.19744        69.15011         0.04500
C         47.51238        71.29654        -0.18385
C         46.28527        71.99991        -0.41650
C         47.51552        74.13300        -0.35271
C         46.28911        73.43152        -0.48591
C         48.85230        37.81386        -0.56911
C         50.18166        39.87624        -0.31388
C         48.93769        39.19048        -0.28449
C         50.24632        41.26732        -0.15021
C         49.03351        41.98837         0.13277
C         50.20572        44.07359        -0.68125
C         49.09084        43.49321         0.23510
C         50.23336        45.57502        -0.52458
C         48.99681        46.28601        -0.48342
C         50.21796        48.37772        -0.87770
C         48.99174        47.70559        -0.68312
C         50.24326        49.79455        -1.37900
C         48.92124        50.51206        -1.19181
C         50.23649        52.70793        -1.25384
C         48.92195        51.96605        -1.46644
C         50.19698        54.15066        -0.99954
C         48.99822        54.86119        -1.08956
C         50.16761        57.02367        -0.71860
C         48.97790        56.29198        -0.97634
C         50.13540        58.48209        -0.51097
C         48.88464        59.19552        -0.47939
C         50.02581        61.28622         0.14436
C         48.81818        60.52572        -0.06961
C         49.99815        62.66852         0.41530
C         48.70145        63.36176         0.56194
C         49.95981        65.58328         0.81643
C         48.65528        64.85839         0.70926
C         49.94428        67.07225         0.69395
C         48.68256        67.76550         0.36203
C         49.96940        69.89706         0.23133
C         48.71746        69.17152         0.15084
C         49.96381        71.31816         0.15346
C         48.73854        72.01863        -0.06781
C         49.97831        74.14457        -0.09645
C         48.74188        73.45350        -0.16943
C         51.48696        41.98051        -0.25588
C         52.69745        44.13433        -0.28352
C         51.52327        43.37830        -0.34682
C         52.70667        45.55528        -0.44575
C         51.44544        46.26682        -0.57805
C         52.68305        48.41307        -0.66545
C         51.44611        47.69294        -0.72254
C         52.68017        49.84738        -0.67529
C         51.46965        50.55727        -0.91570
C         52.63193        52.65867        -0.47820
C         51.46532        51.96058        -0.85819
C         52.54677        54.10600        -0.07219
C         51.50605        54.86998        -0.92747
C         52.55959        57.02597        -0.10560
C         51.36149        56.31898        -0.53479
C         52.59143        58.49763        -0.24539
C         51.31934        59.18827        -0.31357
C         52.49233        61.31326         0.03891
C         51.30572        60.61865        -0.06896
C         52.49206        62.68359         0.66385
C         51.20210        63.44671         0.48383
C         52.46766        65.59018         0.64711
C         51.22098        64.83481         0.60155
C         52.46841        67.01582         0.67955
C         51.21913        67.72902         0.22322
C         52.39187        69.91492         0.64617
C         51.20294        69.21833         0.43643
C         52.40917        71.33416         0.51497
C         51.19752        72.02872         0.24987
C         52.44158        74.14083         0.10841
C         51.20232        73.46174         0.09153
C         53.89880        46.28174        -0.40210
C         55.12295        48.43396        -0.35364
C         53.91789        47.70940        -0.48393
C         55.14356        49.85277        -0.33259
C         53.89602        50.56151        -0.46942
C         55.10981        52.70461        -0.19966
C         53.87766        51.98170        -0.37061
C         55.10206        54.14048        -0.15442
C         53.87823        54.80935        -0.14637
C         55.10876        56.99687        -0.27988
C         53.84947        56.26136         0.00946
C         55.07619        58.48904        -0.30532
C         53.77291        59.17728        -0.17187
C         54.97767        61.27197         0.44337
C         53.80707        60.66681        -0.34164
C         55.02068        62.76963         0.20711
C         53.71608        63.48940         0.30380
C         54.93983        65.61938         0.71253
C         53.71044        64.92667         0.61574
C         54.90992        67.03124         0.90563
C         53.66309        67.72039         0.85364
C         54.91859        69.91563         0.99498
C         53.60438        69.19665         1.20052
C         54.89509        71.35109         0.76130
C         53.65863        72.04049         0.54803
C         54.90230        74.14783         0.21159
C         53.66425        73.45270         0.29057
C         56.34282        50.58348        -0.16729
C         57.57021        52.73889         0.01297
C         56.35727        52.00425        -0.11572
C         57.59911        54.15840         0.03949
C         56.35566        54.87337        -0.05086
C         57.57320        57.03302         0.01482
C         56.37795        56.28290        -0.06203
C         57.55300        58.48039         0.03958
C         56.33390        59.21089        -0.02435
C         57.50562        61.32465         0.37240
C         56.30529        60.59525         0.19191
C         57.47494        62.78203         0.59446
C         56.26041        63.50192         0.51154
C         57.40987        65.62329         0.95583
C         56.20240        64.90601         0.70915
C         57.35928        67.04090         1.13904
C         56.14424        67.74884         1.09595
C         57.38995        69.92513         1.22577
C         56.10091        69.20649         1.15914
C         57.38416        71.41698         0.92652
C         56.10148        72.06703         0.62622
C         57.37530        74.18678         0.36151
C         56.12093        73.47347         0.34521
C         58.80429        54.90931         0.13344
C         60.02205        57.08506         0.24899
C         58.81853        56.32398         0.12946
C         60.02395        58.48896         0.28819
C         58.76353        59.21444         0.19531
C         60.00451        61.43102         0.24762
C         58.73029        60.62364         0.30858
C         59.92374        62.68688         1.12325
C         58.66590        63.49023         0.87053
C         59.90409        65.61106         1.15287
C         58.65324        64.89573         1.02284
C         59.90906        67.02017         1.22892
C         58.62779        67.75500         1.54865
C         59.88550        69.84104         0.62591
C         58.63276        69.18935         1.12557
C         59.88606        71.34970         0.71419
C         58.61056        72.03634         0.27903
C         59.83698        74.21230         0.58179
C         58.60019        73.53718         0.45338
C         61.22617        59.22542         0.49098
C         62.42288        61.34682         0.83030
C         61.25324        60.63074         0.56841
C         62.42980        62.78346         0.94011
C         61.19098        63.49047         1.00231
C         62.38891        65.61839         1.14565
C         61.15832        64.89467         1.08587
C         62.37645        67.03893         1.26529
C         61.12031        67.73766         1.23365
C         62.27964        69.90087         1.36926
C         61.13692        69.18559         1.15692
C         62.25686        71.40211         1.52421
C         61.01623        72.05841         0.96171
C         62.28845        74.16637         0.73651
C         61.04115        73.51376         0.79057
C         63.63681        63.50460         1.00624
C         64.84228        65.66543         1.17324
C         63.63785        64.91834         1.11816
C         64.82754        67.06643         1.30948
C         63.58373        67.75274         1.40393
C         64.79434        69.95885         1.32215
C         63.56093        69.21190         1.78025
C         64.75745        71.34758         1.12472
C         63.54357        72.06961         1.09313
C         64.72983        74.12914         0.41612
C         63.51829        73.46651         0.79236
C         66.04122        67.83151         1.24467
C         67.22165        69.92951         0.77662
C         66.02472        69.22249         1.15997
C         67.23936        71.29948         0.60738
C         66.06042        72.11801         1.08006
C         67.13605        74.07630        -0.07137
C         65.95374        73.46945         0.41074
C         68.38507        71.98905         0.11675
C         68.33178        73.34912        -0.18085
O         48.46090        63.98967         1.89320
O         49.94241        43.81259        -2.03168
O         43.81869        46.37220         2.09911
O         53.11733        56.64560         1.25101
O         54.31845        63.22729        -0.99712
O         50.01378        66.46135         2.01430
O         41.73819        56.35684        -2.69177
O         57.50041        70.99181         2.30315
O         31.26706        71.25373         1.40701
O         55.10170        57.70397        -1.57176
O         46.93541        42.93668         1.91327
O         44.90661        61.94774         1.33274
O         49.76038        52.34371        -2.61990
O         36.48477        54.96326         2.39581
O         39.78112        71.70321        -3.32441
O         36.79852        71.68906        -3.17444
O         44.47869        58.48433         0.81440
O         45.52664        54.56960         0.54257
O         33.84605        63.85353         1.83805
O         38.40640        59.90912        -2.31508
O         28.34889        67.71645         1.59068
H         27.79336        67.27304         2.26624
O         46.24428        50.31417        -2.75947
H         45.30150        50.54285        -2.95601
O         59.88280        69.51608        -0.82232
H         59.24540        70.14559        -1.24909
O         37.97826        49.98221        -0.77745
H         37.13553        49.59663        -1.09680
O         41.74195        69.03322        -3.38982
H         41.51044        69.91473        -3.75695
O         58.43397        71.78478        -1.16440
H         59.01531        72.41067        -1.64689
O         43.52972        50.39419        -2.24093
H         43.24620        49.46608        -2.38621
O         35.49593        52.65829         3.15793
H         36.11584        53.33467         3.51656
O         52.57905        62.49369         2.11750
H         51.82272        61.93462         2.39518
O         30.40086        61.58118         2.83568
H         31.31917        61.73376         3.17782
O         58.58063        67.78274         3.03588
H         58.29743        66.89240         3.33492
O         60.13571        61.89846        -1.12312
H         60.14632        61.11563        -1.71229
O         49.41529        43.90570         1.57167
H         48.70446        43.55527         2.16285
O         37.51772        74.45509        -3.43544
H         37.38112        73.56224        -3.83110
O         26.33604        72.44982        -1.48104
H         26.58180        71.61586        -1.95346
O         66.35180        72.42312         2.49305
H         67.19055        72.93133         2.50974
O         47.72052        58.59777        -2.46872
H         47.61496        59.55664        -2.66684
O         41.77973        43.44608         3.08959
H         42.66875        43.04365         3.27544
O         42.85684        39.59139         2.50096
H         41.97741        39.80668         2.88163
O         32.21000        73.57820         1.95173
H         31.77310        72.81106         2.39364
O         42.45958        65.47574         0.58217
H         43.23933        65.88230         1.01562
O         47.52800        56.86172         0.76522
H         47.08938        56.00590         0.97591
O         53.38769        69.23469         2.65760
H         54.20651        68.91003         3.08946
O         41.96776        52.28713         1.84819
H         42.90150        52.01717         1.98470
O         52.10063        54.12248         1.30977
H         52.30642        55.02487         1.66557
O         62.20281        71.64413         2.97142
H         62.87968        71.04956         3.38193
O         54.07481        60.87107        -1.75567
H         53.39901        60.38354        -2.27039
O         45.65029        66.90281        -2.40532
H         45.17778        66.12775        -2.81221
O         44.20909        42.00851         2.85673
H         44.03545        41.06051         3.08111
O         59.84335        62.21591         2.50511
H         59.92656        62.99355         3.09547
O         46.40451        60.97166        -1.76222
H         45.62963        60.63049        -2.25841
O         36.26727        57.38097         2.49407
H         35.80164        58.09331         2.99040
O         28.66054        67.53897        -2.05915
H         29.49756        67.59774        -2.58716
O         35.74844        56.13323        -0.91478
H         36.37926        55.95380        -1.64365
O         54.69649        61.02032         1.84391
H         55.40470        61.42732         2.38462
O         52.07440        54.86425        -2.28404
H         51.36084        55.09797        -2.91518
O         46.14784        54.53375        -3.01742
H         45.28159        54.97239        -3.24731
O         32.79228        57.32166         3.00153
H         33.51019        57.90912         3.34349
O         41.60783        64.74371        -2.90947
H         40.82061        64.29444        -3.28522
O         40.44345        58.58574        -2.74803
H         41.00257        57.80277        -3.02835
O         26.24479        67.58980        -1.42233
H         25.32447        67.89801        -1.55829
O         27.56595        70.06676        -1.94427
H         27.57930        69.11468        -2.23708
O         33.11667        61.66922         2.86168
H         33.63921        62.49287         3.04687
O         31.33222        67.71025        -2.52200
H         32.06902        68.24666        -2.92393
O         47.35858        60.90393         1.76278
H         47.68018        61.68498         2.26126
O         47.44485        43.66274        -1.54889
H         48.30790        43.73529        -2.06907
O         39.23113        50.69154         2.59408
H         40.00678        51.22219         2.87985
O         43.76738        54.69712        -2.64408
H         42.98676        55.30791        -2.88284
O         34.56190        59.43475         2.80262
H         34.02486        60.19944         3.14995
O         38.07343        45.76011         3.29943
H         38.92610        45.31871         3.50894
O         42.21975        62.79127         1.16948
H         43.05066        62.50219         1.62264
O         33.56410        69.18934        -2.93443
H         34.36095        68.94626        -3.45375
O         28.04400        62.92057         2.74409
H         28.86867        62.43596         3.01467
O         51.19675        67.54607        -1.23447
H         51.99285        67.97772        -1.61020
O         40.61467        58.93801         0.86998
H         41.25241        59.34897         1.49173
O         50.41232        49.69087        -2.83735
H         50.26899        50.60247        -3.19454
O         40.98868        54.05395        -2.31343
H         41.11469        54.79103        -2.97851
O         44.20333        64.60345        -2.59161
H         43.32508        64.54643        -3.04835
O         45.84665        69.17495         1.49937
H         46.63033        68.84384         1.99049
O         63.61127        69.26845         3.26857
H         62.90776        68.67152         3.60385
H         23.36943        75.48423         1.55627
H         25.77198        75.45956         1.04675
H         28.21604        75.34645         0.77559
H         30.59580        75.24383         0.48223
H         33.13028        75.21223        -0.04828
H         35.38882        75.22722        -0.86043
H         37.74715        75.27121        -1.54366
H         40.18490        75.21565        -1.39699
H         42.61111        75.21036        -1.06817
H         45.06764        75.21859        -0.72280
H         47.51383        75.23096        -0.42030
H         49.98591        75.24021        -0.19656
H         52.46070        75.22905        -0.05278
H         54.89569        75.23467         0.04232
H         57.34539        75.28686         0.37405
H         59.85486        75.31180         0.53560
H         62.30921        75.24692         0.52867
H         64.67028        75.16538         0.04839
H         67.09959        75.11845        -0.42137
H         22.40332        69.61140         1.90068
H         21.28640        71.76625         2.27691
H         21.32872        74.25332         2.25828
H         24.64542        65.30536         1.38721
H         23.52647        67.48424         1.66226
H         27.14381        60.95449         0.54960
H         25.78618        63.15866         1.24523
H         29.68319        56.72637         0.49029
H         28.44402        58.82812         0.45479
H         32.08666        52.45091         0.87265
H         30.90079        54.57003         0.65525
H         34.49505        48.09883         1.24235
H         33.26668        50.26740         0.92180
H         36.99112        43.76746         1.36255
H         35.71881        45.98839         1.68016
H         39.35667        39.61754         0.40036
H         38.20536        41.67958         0.97592
H         41.65341        35.39182        -0.47043
H         40.50576        37.50814        -0.06606
H         44.88702        32.03995        -1.60097
H         42.79756        33.28955        -1.07459
H         47.09631        33.17926        -1.53038
H         48.43597        35.22583        -1.15643
H         49.76494        37.25222        -0.81735
H         51.09993        39.30755        -0.52392
H         52.41936        41.39999        -0.34931
H         53.64252        43.63760        -0.00636
H         54.85341        45.74824        -0.27659
H         56.06702        47.88328        -0.22578
H         57.29362        50.03622        -0.08132
H         58.51885        52.18440         0.07385
H         59.76016        54.36889         0.20929
H         60.97947        56.54989         0.34159
H         62.16333        58.66786         0.64612
H         63.37615        60.80759         0.94449
H         64.59521        62.96623         0.96511
H         65.80590        65.13924         1.10272
H         66.99344        67.29654         1.11280
H         68.12177        69.33960         0.54298
H         69.30361        71.41919        -0.08679
H         69.22768        73.84962        -0.57454
