         430
 CSIRO Nanostructure Databank - Neutral Graphene Oxide Data Set
C         28.09365        27.45055         1.22128
C         28.03371        28.85610         0.96261
C         26.79966        29.57358         1.02658
C         27.85377        31.61041         0.02067
C         26.70525        30.88564         0.66505
C         27.90388        33.09458         0.29709
C         26.77684        33.81872         0.77712
C         27.80125        35.94920        -0.00316
C         26.73981        35.18607         0.74404
C         27.88751        37.41582         0.34979
C         26.72349        38.12610         0.62082
C         27.96041        40.20024         0.87010
C         26.76120        39.49739         0.91705
C         28.07408        41.65333         1.30021
C         26.77123        42.41882         1.38075
C         28.00327        44.52181         1.16291
C         26.76926        43.76484         1.34506
C         28.04718        45.91097         1.37613
C         30.59642        27.50388         1.24967
C         29.27713        26.77818         1.27239
C         30.49020        28.88932         0.65527
C         29.24071        29.56430         0.62931
C         30.37970        31.65148         0.06387
C         29.18290        30.94127         0.28752
C         30.35913        33.10457        -0.05052
C         29.12108        33.80893         0.06040
C         30.33271        35.94822        -0.08535
C         29.12662        35.23412         0.05602
C         30.35963        37.40015         0.02495
C         29.13305        38.10533         0.29444
C         30.40160        40.23735         0.39113
C         29.15546        39.51249         0.52027
C         30.40331        41.65568         0.39558
C         29.07576        42.38350         0.39850
C         30.37411        44.56155         0.59574
C         29.17842        43.84924         0.76857
C         30.43273        45.95587         0.85660
C         29.23968        46.60992         1.23351
C         32.92703        24.59444         0.33702
C         31.79771        25.32729         0.76613
C         32.91138        27.41073         0.20674
C         31.75727        26.70949         0.67992
C         32.90663        28.82884         0.05673
C         31.65529        29.56050         0.22624
C         32.80203        31.68414        -0.58935
C         31.60053        30.94373        -0.04840
C         32.86483        33.07817         0.02673
C         31.56432        33.82907        -0.15700
C         32.78152        35.96933        -0.67438
C         31.55170        35.22803        -0.22572
C         32.82499        37.40981        -0.23720
C         31.59197        38.09762         0.00432
C         32.84891        40.24314         0.10728
C         31.61847        39.53048         0.18057
C         32.83974        41.66781         0.14933
C         31.59925        42.36002         0.22446
C         32.89265        44.57773         0.10478
C         31.57654        43.83646         0.12716
C         32.92107        45.98941         0.54004
C         31.71424        46.67042         0.81172
C         32.99599        48.71984         1.14555
C         31.78746        48.04938         1.12544
C         35.39138        23.03686        -0.46778
C         35.21635        24.48890        -0.70257
C         34.07747        25.23778        -0.08825
C         35.30461        27.38426        -0.35823
C         34.10024        26.67545        -0.10533
C         35.32797        28.78957        -0.39014
C         34.09634        29.51923        -0.27736
C         35.30645        31.65164        -0.55345
C         34.11146        30.94829        -0.42544
C         35.32356        33.11267        -0.56909
C         34.09794        33.84148        -0.38510
C         35.30069        35.96644        -0.56542
C         34.07640        35.22308        -0.45426
C         35.27566        37.37125        -0.52694
C         34.04983        38.08928        -0.29895
C         35.31632        40.19789        -0.02838
C         34.09278        39.52475        -0.08202
C         35.34883        41.63691         0.44927
C         34.08164        42.40427         0.15424
C         35.39491        44.51236         0.26194
C         34.13446        43.78478         0.18846
C         35.40864        45.92450         0.41415
C         34.17457        46.65292         0.62784
C         35.48211        48.75171         0.86132
C         34.21492        48.04638         0.89866
C         35.55342        50.14549         1.05964
C         37.69009        22.98297        -1.49818
C         36.53947        22.38664        -0.71684
C         37.73030        24.51693        -1.38584
C         36.45192        25.25423        -1.06233
C         37.81569        27.38018        -0.71542
C         36.58374        26.59596        -0.35839
C         37.80094        28.80398        -0.65494
C         36.56682        29.51259        -0.54262
C         37.78180        31.63245        -0.78175
C         36.56473        30.93388        -0.61371
C         37.77311        33.09152        -1.15558
C         36.51910        33.81688        -0.74486
C         37.78407        35.93685        -0.59777
C         36.54769        35.23959        -0.66032
C         37.80364        37.36221        -0.52687
C         36.53974        38.13307        -0.84537
C         37.78257        40.19379        -0.19164
C         36.55763        39.53919        -0.29310
C         37.86231        41.64124         0.21767
C         36.56677        42.34154        -0.17345
C         37.83383        44.50357        -0.05477
C         36.61327        43.81961         0.09839
C         37.85619        45.91746         0.04921
C         36.65040        46.62149         0.35501
C         37.91692        48.74170         0.42821
C         36.68083        48.04199         0.55728
C         37.95186        50.16090         0.61528
C         36.75406        50.82882         0.93640
C         40.35732        20.27892        -0.85338
C         39.12257        20.95952        -1.08193
C         40.26708        23.10410        -1.13524
C         39.04619        22.33539        -1.19377
C         40.28328        24.49021        -1.05039
C         39.01952        25.24447        -1.19483
C         40.26316        27.37064        -0.83281
C         39.01777        26.69085        -0.87041
C         40.27393        28.80998        -0.79138
C         39.03029        29.51606        -0.74594
C         40.26603        31.65324        -0.82457
C         39.01922        30.94040        -0.79368
C         40.26862        33.08602        -0.75926
C         39.04597        33.80539        -0.77247
C         40.26750        35.88579        -0.39557
C         39.03758        35.19973        -0.58026
C         40.25305        37.32701         0.03707
C         38.99619        38.05539        -0.34174
C         40.25258        40.19379        -0.35130
C         39.02359        39.48622        -0.31313
C         40.27143        41.63068        -0.45663
C         39.07900        42.36146        -0.31322
C         40.22140        44.49560        -0.74257
C         39.06762        43.78788        -0.36461
C         40.27147        45.93882        -0.69247
C         39.07371        46.63738        -0.20822
C         40.23541        48.79705        -0.46910
C         39.08076        48.01532         0.00088
C         40.41202        50.13245         0.16411
C         39.20536        50.89211         0.53212
C         40.56972        52.92643         0.67897
C         39.34366        52.23310         0.85061
C         42.82139        20.25573        -0.77733
C         41.55868        20.93890        -0.91617
C         42.78775        23.13826        -0.83937
C         41.58014        22.38479        -1.34793
C         42.75297        24.50425        -0.64355
C         41.49771        25.22966        -0.81567
C         42.69553        27.40693        -0.30310
C         41.47659        26.62637        -0.73420
C         42.77491        28.75002        -1.01922
C         41.48957        29.52362        -0.84111
C         42.75177        31.65376        -0.78029
C         41.49749        30.93983        -0.82340
C         42.74938        33.06369        -0.67788
C         41.51130        33.78106        -0.64655
C         42.73983        35.92661        -0.37716
C         41.49192        35.19890        -0.47053
C         42.72865        37.35964        -0.36233
C         41.51056        38.07617        -0.32035
C         42.72549        40.20809        -0.59171
C         41.49835        39.48170        -0.42667
C         42.72074        41.63180        -0.81436
C         41.49545        42.31147        -0.76288
C         42.70515        44.45361        -1.52990
C         41.41557        43.72922        -1.15018
C         42.66310        45.97937        -1.67454
C         41.43795        46.62963        -1.03115
C         42.70816        48.86564        -1.43919
C         41.41832        48.10359        -1.09377
C         42.82867        50.23228        -0.77675
C         41.71923        50.85393        -0.03173
C         42.92082        53.02674        -0.07611
C         41.70981        52.30945         0.19205
C         44.00579        20.91484        -0.82886
C         45.32372        23.10770        -0.45232
C         44.07149        22.38861        -0.87417
C         45.16436        24.48915         0.15405
C         43.96916        25.25868        -0.34830
C         45.22124        27.39185        -0.20606
C         43.98967        26.63353        -0.35245
C         45.23043        28.79726        -0.35616
C         44.01276        29.53031        -0.63767
C         45.29147        31.66286        -0.85092
C         43.99052        30.91388        -0.69859
C         45.21904        33.11919        -0.48423
C         43.99602        33.79350        -0.51649
C         45.19567        35.95508        -0.28896
C         43.96461        35.22776        -0.38543
C         45.18769        37.37953        -0.29950
C         43.95918        38.08510        -0.39356
C         45.18745        40.23126        -0.58837
C         43.94820        39.50734        -0.50929
C         45.18710        41.61081        -0.92018
C         43.97342        42.34047        -1.05036
C         45.21193        44.49719        -1.41036
C         43.98449        43.74808        -1.31139
C         45.22110        45.89710        -1.45735
C         43.99074        46.67638        -1.37721
C         45.23844        48.85337        -1.65352
C         43.99031        48.05283        -1.31965
C         45.24875        50.28307        -1.16559
C         44.01861        50.95614        -0.85709
C         44.03200        52.36833        -0.51012
C         47.61522        23.10028         0.42068
C         46.54208        22.39585         0.00293
C         47.64580        24.56000         0.39316
C         46.45884        25.26545         0.15553
C         47.66626        27.40388         0.23058
C         46.44866        26.68473         0.05683
C         47.66606        28.83284         0.15306
C         46.46124        29.53181        -0.16112
C         47.67066        31.67243        -0.03121
C         46.48330        30.94452        -0.27262
C         47.66749        33.11596        -0.06995
C         46.44077        33.82291        -0.25431
C         47.64343        35.97288        -0.00247
C         46.42503        35.24585        -0.18998
C         47.61150        37.38536         0.04361
C         46.41260        38.11583        -0.17163
C         47.63365        40.30106        -0.24205
C         46.40558        39.53732        -0.31916
C         47.69350        41.60288        -0.68096
C         46.49526        42.18968        -1.41276
C         47.80961        44.46854        -1.36844
C         46.50146        43.72521        -1.52883
C         47.77225        45.94834        -1.24528
C         46.52105        46.64226        -1.76143
C         47.68451        48.81158        -1.22804
C         46.51215        48.10422        -1.37610
C         47.67366        50.23738        -1.16867
C         46.48275        50.94376        -1.09138
C         50.10695        24.60458         0.82021
C         48.87722        25.27532         0.57018
C         50.10056        27.42299         0.70080
C         48.88015        26.69943         0.50178
C         50.09752        28.85252         0.62874
C         48.88087        29.55509         0.35180
C         50.09925        31.70417         0.46884
C         48.88161        30.97718         0.27462
C         50.10126        33.12820         0.39031
C         48.87696        33.83750         0.15748
C         50.10834        35.98221         0.34518
C         48.87615        35.26291         0.17240
C         50.11949        37.40092         0.40224
C         48.83256        38.10730         0.41459
C         50.13951        40.27338         0.22481
C         48.83205        39.61772         0.30843
C         50.05605        41.76771         0.16483
C         49.05055        42.24928        -0.88858
C         50.17594        44.46464        -0.61419
C         49.02969        43.76836        -0.89807
C         50.21209        45.92508        -0.84648
C         48.92259        46.63523        -1.03516
C         50.05422        48.75645        -0.36011
C         49.02853        48.12734        -1.28228
C         51.27637        25.30245         1.01613
C         52.53538        27.45396         1.18673
C         51.31071        26.72270         0.97006
C         52.52373        28.87488         1.11033
C         51.30671        29.57529         0.82735
C         52.52628        31.72748         0.93937
C         51.30933        31.00208         0.74597
C         52.53218        33.14521         0.82777
C         51.32209        33.84786         0.56029
C         52.56619        35.99448         0.62019
C         51.33274        35.27400         0.50276
C         52.56537        37.43124         0.58194
C         51.33242        38.12657         0.49102
C         52.57799        40.30756         0.51108
C         51.31989        39.58392         0.42077
C         52.58987        41.72173         0.38982
C         51.39653        42.44386         0.07401
C         52.60920        44.57163         0.10249
C         51.40634        43.81366        -0.16136
C         52.61949        45.98538         0.07500
C         51.42389        46.71240        -0.42500
C         51.18115        48.11503        -0.01793
C         54.92538        27.49875         1.69681
C         53.76097        26.79253         1.48121
C         54.93877        28.91527         1.62475
C         53.73296        29.60910         1.32322
C         54.94905        31.76102         1.47135
C         53.73936        31.03384         1.23622
C         54.95026        33.18067         1.36872
C         53.75792        33.87173         0.98293
C         55.10347        35.97208         0.66361
C         53.77201        35.27942         0.80196
C         55.03382        37.47348         0.81098
C         53.80701        38.16081         0.70733
C         55.02695        40.31816         0.84778
C         53.79782        39.59825         0.70323
C         55.02329        41.75943         0.83792
C         53.81413        42.44852         0.55580
C         54.98721        44.60779         0.77001
C         53.79836        43.87534         0.47967
C         54.95972        46.02016         0.74001
C         53.79213        46.69119         0.40445
C         56.13641        29.65777         1.84861
C         56.14007        31.02798         1.77949
C         56.09542        33.97778         1.75909
C         56.14982        35.30868         1.52317
C         56.23224        38.20156         0.91764
C         56.23211        39.58649         0.95946
C         56.20302        42.52127         1.09788
C         56.18315        43.89410         1.08594
O         47.30421        44.08312        -2.70360
O         41.42577        50.08155         1.22864
O         45.02845        22.96077        -1.86602
O         41.84906        43.86824        -2.57323
O         48.62020        38.96476         1.61077
O         38.40280        25.07289        -2.56338
O         40.33197        48.68974        -1.92359
O         35.44093        25.03938        -2.06796
O         32.12161        44.35583        -1.13933
O         51.20336        46.38888        -1.85463
O         36.53015        38.28889        -2.31502
H         36.66456        37.39763        -2.70294
O         33.00027        32.86005         1.46549
H         33.07141        33.73494         1.90141
O         28.54861        42.31907        -0.95362
H         29.17716        42.78153        -1.54688
O         41.75712        22.33485        -2.81232
H         41.83329        23.25984        -3.13074
O         42.59174        49.14861        -2.88059
H         42.35621        48.28353        -3.30079
O         40.23650        37.29320         1.52358
H         41.03100        36.79105         1.80623
O         32.58998        31.86260        -2.01634
H         32.59543        30.98008        -2.44161
O         46.63201        46.64204        -3.21454
H         47.36250        47.25289        -3.45671
O         30.95384        27.71103         2.67031
H         30.24587        28.26143         3.06803
O         27.37561        35.91379        -1.41775
H         27.40624        34.97551        -1.70540
O         45.52893        31.66406        -2.31979
H         45.69974        30.73419        -2.58371
O         32.64306        36.03533        -2.14580
H         33.39024        36.57330        -2.48506
O         49.48886        41.82225        -2.20041
H         48.71797        41.92550        -2.80827
O         42.90785        28.45502        -2.44254
H         42.89044        29.30507        -2.93026
O         36.80703        26.19051         1.05015
H         36.84468        27.00816         1.59125
O         36.46869        42.19460        -1.61262
H         35.65539        42.65222        -1.91333
O         35.41195        41.62067         1.89904
H         36.35304        41.47324         2.16391
O         38.02673        41.68750         1.67771
H         38.79689        41.12277         1.90302
O         44.85462        24.22089         1.57178
H         44.93077        25.06964         2.05708
O         46.64542        41.67485        -2.78769
H         46.20509        42.30844        -3.39496
O         37.41133        22.67236        -2.88687
H         37.82961        23.38608        -3.42137
O         49.48447        48.29107        -2.65640
H         50.28674        47.71613        -2.74818
O         49.47669        42.19131         1.44592
H         49.90859        41.67548         2.15919
O         55.52991        35.74808        -0.73515
H         55.56477        34.77707        -0.87181
O         27.62699        31.50644        -1.44762
H         27.71958        30.55984        -1.68818
O         45.21835        49.00798        -3.12235
H         44.28578        49.26303        -3.35542
O         28.65429        41.64754         2.63602
H         28.02915        41.19134         3.23650
O         37.75124        33.11137        -2.63784
H         38.53638        32.60990        -2.94581
O         42.46832        46.27577        -3.09847
H         41.96209        45.51089        -3.46827
O         42.49719        27.72199         1.11254
H         42.37149        26.87689         1.59286
H         27.14689        26.90743         1.36486
H         25.90571        29.03853         1.38261
H         25.71916        31.37053         0.68444
H         25.91339        33.27415         1.18476
H         25.83736        35.70497         1.09623
H         25.74938        37.61910         0.61538
H         25.81899        40.00333         1.16677
H         25.82946        41.88409         1.57303
H         25.83326        44.32776         1.48248
H         27.13221        46.44410         1.67196
H         29.26879        25.70421         1.50437
H         29.23550        47.69064         1.42595
H         32.87482        23.49715         0.35456
H         30.93714        24.76554         1.15304
H         32.99199        49.79537         1.36522
H         30.87392        48.61847         1.34013
H         34.58066        22.49978         0.04758
H         34.64970        50.71958         1.30119
H         36.60080        21.31958        -0.45557
H         36.75596        51.91696         1.08342
H         40.33527        19.20075        -0.63487
H         38.20742        20.35374        -1.13351
H         40.59946        54.00381         0.89739
H         38.47836        52.81082         1.20295
H         42.80705        19.15995        -0.67308
H         42.95233        54.10924         0.11444
H         44.94829        20.35065        -0.79927
H         44.95259        52.94465        -0.66492
H         48.51552        22.55489         0.73394
H         46.59024        21.29916        -0.05477
H         48.62318        50.78782        -1.16096
H         46.53422        52.02946        -0.93583
H         50.13882        23.50850         0.86418
H         49.89583        49.78285         0.00175
H         52.19641        24.73576         1.20943
H         51.91131        48.60121         0.64611
H         55.85878        26.96539         1.92787
H         53.79232        25.69707         1.54611
H         55.87477        46.58448         0.96909
H         53.79534        47.78934         0.36520
H         57.06402        29.11301         2.07695
H         57.08140        31.56841         1.94706
H         56.91412        33.49664         2.31310
H         57.02231        35.88476         1.86253
H         57.19315        37.67060         0.95078
H         57.19301        40.11112         1.04007
H         57.14380        42.00789         1.33724
H         57.09753        44.46244         1.30961
