         232
 CSIRO Nanostructure Databank - Neutral Graphene Oxide Data Set
C        -11.08762         0.67385         0.64924
C         -9.83770         1.46376         0.57157
C         -8.59150         0.73554         0.06210
C         -7.45103         1.52768        -0.41521
C         -6.31121         0.84691        -1.07756
C         -5.03962         1.63486        -1.27905
C         -3.77148         0.92130        -1.66161
C         -2.41439         1.69250        -1.67092
C         -1.16808         0.84824        -1.44855
C          0.12116         1.64266        -1.42898
C          1.38594         0.82591        -1.22861
C          2.57071         1.50389        -1.00294
C          3.86694         0.77975        -1.34073
C          5.10834         1.50158        -0.88029
C          6.29683         0.82222        -0.78591
C          7.47931         1.48574        -0.27530
C          8.63231         0.68102         0.15910
C          9.77898         1.34312         0.90681
C         11.03617         0.57413         1.08428
C         -9.82038         2.91556         0.43622
C         -8.62794         3.59793         0.23111
C         -7.40984         2.88367        -0.14462
C         -6.16040         3.62381        -0.30489
C         -5.00772         3.01260        -0.75660
C         -3.71393         3.78111        -0.87177
C         -2.44194         2.94722        -0.79079
C         -1.29674         3.48008        -0.24852
C          0.00505         2.74315        -0.36457
C          1.30237         3.41004        -0.00964
C          2.58494         2.87254        -0.54387
C          3.75456         3.58750        -0.37442
C          5.07095         3.00905        -0.84832
C          6.26343         3.61912        -0.15203
C          7.44200         2.84906         0.07470
C          8.62430         3.51350         0.61937
C          9.76505         2.79531         0.95685
C         -8.60025         5.03334         0.28574
C         -7.41135         5.75169         0.20799
C         -6.16045         5.04824         0.01617
C         -4.95732         5.71915         0.12253
C         -3.71672         4.86515         0.20298
C         -2.42041         5.61552         0.23440
C         -1.27235         4.87177         0.25029
C         -0.01021         5.52462         0.70108
C          1.29807         4.81404         0.52620
C          2.54336         5.60968         0.42325
C          3.74325         4.96636         0.08926
C          4.97907         5.69043         0.20352
C          6.22738         4.97883         0.17519
C          7.44211         5.66727         0.56127
C          8.60975         4.93615         0.75187
C         -7.36619         7.17211         0.39001
C         -6.16335         7.86273         0.42614
C         -4.91106         7.14081         0.31194
C         -3.69363         7.81996         0.34264
C         -2.41646         7.09945        -0.01880
C         -1.19340         7.79315         0.48278
C         -0.03314         7.02115         1.03904
C          1.28175         7.72899         0.79072
C          2.50146         7.02967         0.63869
C          3.73362         7.76360         0.63796
C          4.96619         7.07294         0.50474
C          6.21259         7.78648         0.69126
C          7.40657         7.08636         0.74358
C         -6.10316         9.29596         0.58235
C         -4.90981         9.95483         0.61284
C         -3.65456         9.24771         0.49481
C         -2.43164         9.91364         0.54481
C         -1.18972         9.18582         0.62674
C          0.03878         9.85660         0.89203
C          1.27143         9.15352         0.87736
C          2.50799         9.85965         0.92044
C          3.72244         9.18469         0.83193
C          4.98266         9.88640         0.92443
C          6.16759         9.21746         0.87975
C        -11.08246        -0.68388         0.59727
C         -9.89890        -1.45456         0.26597
C         -8.72938        -0.71101        -0.27137
C         -7.47735        -1.44225        -0.64434
C         -6.27622        -0.66306        -1.11829
C         -4.97976        -1.36657        -1.19497
C         -3.78252        -0.59185        -1.59920
C         -2.44532        -1.28597        -1.39046
C         -1.17426        -0.49816        -1.38853
C          0.07400        -1.34975        -1.61648
C          1.39185        -0.61045        -1.43872
C          2.54840        -1.34516        -1.28561
C          3.79234        -0.64163        -0.75922
C          5.08330        -1.41975        -0.91271
C          6.33049        -0.62305        -1.26366
C          7.67425        -1.33906        -1.03199
C          8.89025        -0.63057        -0.51524
C         10.20565        -1.39522        -0.25321
C         11.15242        -0.70453         0.70051
C         -9.89301        -2.81953         0.11099
C         -8.69438        -3.56169        -0.20737
C         -7.34008        -2.89361        -0.29201
C         -6.15295        -3.63233        -0.97169
C         -4.90218        -2.73453        -0.96309
C         -3.63193        -3.31642        -0.57532
C         -2.48131        -2.55783        -0.65610
C         -1.21157        -2.99147        -0.04820
C          0.08429        -2.49354        -0.60281
C          1.26455        -3.43071        -0.66662
C          2.53859        -2.82989        -1.21949
C          3.85562        -3.60760        -1.19457
C          5.09107        -2.77232        -0.91797
C          6.35669        -3.55810        -1.00084
C          7.68599        -2.84075        -1.03336
C          8.86214        -3.53991        -0.43959
C          9.95531        -2.84898         0.04724
C         -8.64791        -4.92417        -0.08647
C         -7.35473        -5.53360         0.11792
C         -6.18167        -4.57287         0.24435
C         -4.84942        -5.15248         0.80063
C         -3.62323        -4.76095        -0.08321
C         -2.37251        -5.19310         0.71516
C         -1.17632        -4.26586         0.72040
C          0.17697        -4.77114         1.03152
C          1.30303        -4.57905         0.28231
C          2.53915        -5.44592         0.30931
C          3.78760        -4.93207        -0.40222
C          5.10987        -5.57993        -0.15471
C          6.31610        -4.94815        -0.49016
C          7.55600        -5.65154        -0.31917
C          8.78448        -4.95291        -0.29645
C         -7.27054        -6.87705         0.28744
C         -6.02868        -7.54072         0.70053
C         -4.80238        -6.70090         0.91805
C         -3.48028        -7.39619         0.82653
C         -2.29083        -6.68602         0.91680
C         -1.04595        -7.43119         1.07257
C          0.13626        -6.89300         1.54536
C          1.43694        -7.54847         1.56583
C          2.69283        -6.70525         1.15867
C          3.95334        -7.49955         0.96463
C          5.12650        -6.91711         0.31316
C          6.31911        -7.69473         0.21231
C          7.52244        -7.04998        -0.08004
C         -5.89266        -8.97814         0.40484
C         -4.68799        -9.58116         0.45750
C         -3.46231        -8.84133         0.70124
C         -2.26691        -9.53730         0.68163
C         -1.02304        -8.87940         0.90679
C          0.16205        -9.60404         1.04059
C          1.44105        -9.00351         1.28732
C          2.60992        -9.70548         1.06104
C          3.92198        -9.07493         1.07283
C          5.08731        -9.79707         0.53543
C          6.24488        -9.14445         0.27297
O         -6.68687        -3.35548         1.01346
O          7.13036        -3.41736        -2.25344
O         -2.25740         2.17196        -3.03744
O          4.28354        -8.22016         2.18756
O          1.61163        -3.58765        -2.07103
O         -3.67641        -5.58075        -1.27542
H         -4.39306        -5.24039        -1.85899
O          2.28596        -6.83094         2.52940
O         -6.30671        -4.25433        -2.24051
H         -6.39020        -3.56031        -2.92802
O          0.63350         4.83076         1.83820
O         10.96507        -1.42076        -1.50071
H         10.29682        -1.40983        -2.22926
O          0.17020        -5.62710         2.12964
O         -3.80165         4.13013         1.46176
H         -3.64665         4.76029         2.19622
O          3.59870        -0.53280         0.67969
H          2.81953         0.04296         0.84468
O          4.09296        -4.02972        -2.56109
H          3.27776        -4.50349        -2.84613
O         -2.10295        -4.32597         1.84483
O          0.33724         2.31344        -2.69698
H         -0.54061         2.45646        -3.12959
O          2.86232        -5.85827        -1.07315
O          0.65698         2.43593         0.89573
O          6.22939        -0.53674        -2.71626
H          6.37249        -1.44315        -3.07211
O          3.89918         0.68423        -2.78208
H          4.12057         1.57755        -3.12615
O         -4.92456         4.47002        -2.84894
H         -5.01353         3.55822        -3.23149
O         -5.57905        -7.16109         2.07311
O          8.68463         0.63927         1.62735
O         -0.38404        -1.99285         0.67637
O         -0.23126         7.10734         2.49929
H          0.28123         6.35459         2.88223
O          8.62345        -0.66867        -1.94494
O         -4.62661         1.51028        -2.70305
O         -2.36223         7.15541        -1.50491
H         -3.00252         6.49067        -1.85579
O         -8.80968         0.94315         1.49801
O          5.18008         3.39446        -2.27733
H          6.05722         3.08636        -2.59316
O         -8.53329        -1.18734        -1.64032
O         -0.06148        -1.87813        -2.94338
H          0.03823        -1.14315        -3.58275
O         -3.61908         4.44323        -2.23043
H         -3.16478         2.35310        -3.38504
O         -6.63233         0.12278        -2.30301
O         -3.09393        -1.27230        -2.69913
O         -4.65282        -4.61440         2.10414
H         -5.22240        -5.12198         2.72185
H         12.08174        -1.25288         0.91829
H         11.83883         1.05036         1.66881
H         10.68813         3.32956         1.22628
H          9.52920         5.44835         1.07177
H          8.34567         7.61847         0.95691
H          7.11832         9.76020         0.98613
H          4.96340        10.97728         1.06343
H          2.49654        10.95423         1.03049
H          0.04462        10.95138         0.99731
H         -2.41285        11.00853         0.65292
H         -4.88335        11.04847         0.72750
H         -7.04739         9.85337         0.66897
H         -8.31237         7.71960         0.51582
H         -9.54258         5.56540         0.48340
H        -10.76154         3.47579         0.53740
H        -12.02995         1.21458         0.82147
H        -12.02270        -1.23663         0.74413
H        -10.79475        -3.40178         0.35559
H         -9.55798        -5.52879         0.03734
H         -8.16934        -7.49747         0.14814
H         -6.80099        -9.54420         0.15177
H         -4.59820       -10.66062         0.26546
H         -2.27432       -10.62674         0.52979
H          0.12319       -10.69709         0.92774
H          2.54106       -10.73036         0.66726
H          5.01912       -10.88874         0.41846
H          7.13866        -9.70785        -0.03374
H          8.46139        -7.62206        -0.09568
H          9.69420        -5.50090        -0.00989
H         10.78625        -3.42631         0.48132
