         349
 CSIRO Nanostructure Databank - Neutral Graphene Oxide Data Set
C          1.49524         2.21446        -0.96163
C          1.42145         3.56653        -0.49690
C          2.67811         1.53896        -0.91246
C          2.47709         4.17016         0.13605
C          1.24297         6.33881         0.31746
C          1.22497         7.71282         0.34239
C          2.47149         5.61521         0.31026
C          2.42723         8.47330         0.24979
C          1.30123        10.65308         0.81166
C          1.37529        12.01901         0.97725
C          2.39433         9.89514         0.30402
C          2.55024        12.77821         0.63295
C          1.47727        14.98876         1.13157
C          1.52516        16.38182         1.21276
C          2.58655        14.23740         0.71961
C          2.70152        17.09245         0.88980
C          2.72635        18.53162         0.90906
C          3.84566         2.06489        -0.23961
C          3.66484         3.34638         0.61223
C          4.98240         1.29380        -0.33843
C          4.92295         4.21717         0.74802
C          3.68460         6.32982         0.34957
C          3.68604         7.76028         0.22377
C          4.93565         5.62614         0.54733
C          4.91809         8.44823         0.20905
C          3.58640        10.64408        -0.06200
C          3.65491        12.08763         0.15093
C          4.92841         9.87054        -0.09144
C          4.84017        12.80125        -0.45063
C          3.81796        14.93211         0.40621
C          3.86792        16.37686         0.50922
C          4.94752        14.24265        -0.02380
C          5.04590        17.08942         0.11934
C          3.84327        19.22079         0.53482
C          5.03976        18.53030         0.13050
C          6.20464         1.55570         0.38589
C          6.10144         3.61923         1.17640
C          7.50145         1.35634         0.06277
C          7.38998         4.22762         1.10610
C          6.15345         6.33683         0.72668
C          6.17292         7.78687         0.52508
C          7.37004         5.64619         0.97561
C          7.36255         8.48992         0.53440
C          6.11403        10.68854         0.39209
C          6.16576        12.09087        -0.19370
C          7.41452         9.93043         0.06689
C          7.34425        12.76053        -0.31358
C          6.29903        14.92148        -0.02221
C          6.22132        16.40162        -0.26678
C          7.28952        14.17244        -0.93849
C          7.39736        17.09632        -0.62619
C          6.21208        19.22166        -0.16965
C          7.40513        18.53282        -0.50950
C          8.59187         1.91583         0.98469
C          8.61712         3.45715         0.95354
C          9.89036         1.27984         0.59406
C          9.80466         4.12234         0.65758
C          8.63524         6.38245         1.13474
C          8.62097         7.91581         1.15285
C          9.90962         5.58402         0.87193
C          9.90211         8.56719         0.61960
C          8.61512        10.68009         0.64303
C          8.61422        12.16549         0.21709
C          9.91422         9.93825         0.37736
C          9.90496        12.92141         0.03805
C          8.65908        14.88641        -1.15938
C          8.60671        16.42288        -0.99891
C          9.83477        14.43873        -0.26256
C          9.81191        17.12506        -1.14352
C          8.63010        19.21526        -0.60994
C          9.84413        18.55589        -0.87199
C         11.02910         1.97006         0.25232
C         11.01336         3.43470         0.25925
C         12.23986         1.25958        -0.00572
C         12.16125         4.14028        -0.07298
C         11.11737         6.30909         0.44711
C         11.20537         7.79640         0.77223
C         12.21425         5.59224         0.00019
C         12.34500         8.45711         0.03647
C         11.06843        10.66202        -0.07747
C         11.12477        12.09468        -0.27361
C         12.22517         9.84491        -0.45381
C         12.22786        12.72230        -0.84537
C         11.04602        14.98752        -0.96564
C         11.03101        16.31253        -1.36289
C         12.18537        14.14143        -1.25093
C         12.28452        16.88500        -1.78195
C         11.04116        19.32405        -0.63254
C         12.28338        19.00223        -1.16473
C         13.44621         1.92418        -0.29406
C         13.37066         3.39449        -0.50162
C         14.66092         1.23837        -0.36003
C         14.67387         4.15054        -0.58047
C         13.48446         6.28964        -0.21028
C         13.46885         7.73797        -0.27998
C         14.67805         5.59717        -0.31309
C         14.71765         8.42606        -0.69599
C         13.50629        10.55262        -0.96234
C         13.49532        12.02120        -1.33083
C         14.76977         9.89554        -0.69587
C         14.76845        12.76551        -0.93512
C         13.55632        14.87918        -1.44649
C         13.51503        16.33963        -1.48310
C         14.78401        14.15606        -1.06605
C         14.80253        17.14107        -1.56849
C         13.57575        19.33325        -0.70735
C         14.74475        18.58600        -0.99629
C         15.96137         1.90306        -0.43853
C         15.97387         3.41514        -0.46916
C         17.21266         1.21105        -0.07269
C         17.07482         4.11344         0.27926
C         15.95529         6.26368        -0.13425
C         16.01451         7.70214        -0.45352
C         17.08526         5.59102         0.23477
C         17.23374         8.46950        -0.13421
C         15.97718        10.60314        -0.53941
C         15.96743        12.04832        -0.63177
C         17.21237         9.90099        -0.26381
C         17.18846        12.77725        -0.46844
C         15.96934        14.94290        -0.83250
C         15.95254        16.34526        -0.94963
C         17.19845        14.20826        -0.56220
C         17.16437        17.10218        -0.63398
C         15.96901        19.24211        -0.80834
C         17.21271        18.57141        -0.84072
C         18.38089         1.91290         0.17219
C         18.32124         3.34491         0.58706
C         19.65574         1.29833         0.07065
C         19.60651         4.08807         0.97050
C         18.28791         6.33327         0.76782
C         18.36989         7.77411         0.27461
C         19.57593         5.56644         0.60511
C         19.60965         8.48452         0.43624
C         18.41744        10.62805        -0.04396
C         18.40841        12.07571        -0.19249
C         19.61380         9.92115         0.27486
C         19.61595        12.80192        -0.07904
C         18.43864        14.88767        -0.52712
C         18.46645        16.36498        -0.49559
C         19.64597        14.19297        -0.32178
C         19.71215        17.08565        -0.98299
C         18.42898        19.24833        -0.78985
C         19.68800        18.57790        -0.72682
C         20.85164         2.03476         0.08133
C         20.86935         3.45726         0.40835
C         22.06331         1.37411        -0.22412
C         22.03168         4.18900         0.32623
C         20.79852         6.31127         1.07842
C         20.78335         7.78987         0.76985
C         22.08979         5.61043         0.65304
C         22.01857         8.52126         0.99690
C         20.84504        10.63409         0.49546
C         20.80760        12.11152         0.47165
C         22.02329         9.97075         0.79323
C         22.08736        12.86384         0.66217
C         20.94070        14.93221        -0.38139
C         20.97120        16.41756        -0.49707
C         22.17484        14.23886         0.08710
C         22.12992        17.12862        -0.36671
C         20.87527        19.26481        -0.56189
C         22.15115        18.59459        -0.46372
C         23.27994         2.06963        -0.32973
C         23.25803         3.58210        -0.33136
C         24.48061         1.39764        -0.54205
C         24.57164         4.15721         0.14288
C         23.28279         6.28613         0.64928
C         23.35960         7.74714         0.92356
C         24.60829         5.55538         0.71236
C         24.56956         8.50225         0.48766
C         23.33764        10.64551         0.88221
C         23.39766        12.13732         0.77881
C         24.53681         9.88667         0.45393
C         24.57844        12.81137         0.08104
C         23.40613        15.01131         0.43710
C         23.38062        16.47943         0.11126
C         24.66209        14.26519         0.44971
C         24.68079        17.13073        -0.20132
C         23.33270        19.30002        -0.35477
C         24.65511        18.64185        -0.36758
C         25.75104         2.05955        -0.43093
C         25.73371         3.46252         0.00459
C         26.92871         1.37640        -0.62983
C         27.03683         4.16083         0.19032
C         25.76284         6.36101         0.15382
C         25.77393         7.74084         0.14973
C         26.99773         5.62245        -0.17247
C         26.95245         8.47749        -0.27994
C         25.72239        10.63644         0.07801
C         25.87258        12.02519         0.15744
C         26.79082         9.82366        -0.42460
C         27.16215        12.75144         0.48867
C         25.94476        14.96183         0.11357
C         25.91438        16.46184         0.24045
C         27.11780        14.25249         0.77757
C         27.07415        17.18584         0.42759
C         25.88254        19.33455         0.01010
C         27.04179        18.65563         0.35807
C         28.28745         1.88729        -0.20348
C         28.31336         3.40678        -0.03936
C         29.41597         1.37909        -1.07351
C         29.51480         4.15637        -0.47777
C         28.27802         6.35532        -0.43460
C         28.32237         7.87973        -0.65933
C         29.55308         5.60531        -0.17744
C         29.53159         8.52180         0.10690
C         28.70074        10.91905        -0.27792
C         28.53972        12.20121         0.34053
C         29.72590        10.04278         0.00488
C         29.71490        12.84612         0.73542
C         28.36370        15.04238         1.11009
C         28.26699        16.52646         0.93964
C         29.74114        14.27225         1.17567
C         29.23428        17.35296         1.46931
C         28.23999        19.39660         0.65768
C         29.35426        18.75625         1.17208
C         30.51431         2.10838        -1.34940
C         30.61962         3.51993        -0.98528
C         31.83829         4.27206        -1.23020
C         30.86512         6.33373        -0.27238
C         30.85733         7.82282        -0.17431
C         31.97644         5.57730        -0.87868
C         32.03350         8.49301         0.06387
C         30.95522        10.66559         0.41368
C         30.96404        12.12442         0.56379
C         32.10287         9.87467         0.41795
C         32.15926        12.84110         0.50776
C         31.06073        14.95943         1.05128
C         31.18592        16.36019         1.39830
C         32.18337        14.24065         0.66622
C         32.06193        17.30984         0.92605
C         30.66208        19.37917         1.28752
C         31.85906        18.72289         1.14347
O         17.79935        16.84038         0.70087
O         15.48747         7.88027        -1.82106
O         12.79289        14.34150        -2.56071
O         28.95496        14.59865         2.35631
O          9.28613        12.81929         1.36083
O         27.87178         3.80666         1.32595
O         21.19537        12.71513         1.78686
O         16.29904         2.71649        -1.68387
O         23.61561        11.51361         2.05452
O         12.61168         9.84555        -1.88285
O         24.78306        17.70771        -1.54006
O         21.88188        14.28654        -1.34403
O         22.80760         8.12936         2.20349
O         30.32419         5.85065         1.03803
O         12.25634        18.18059        -2.30708
O         27.52496         5.76939        -1.55954
O         26.83649        13.31728         1.83256
O         30.21596        16.81907         2.30611
O         17.28306         3.53751         1.62254
O         23.26354        16.03483         1.50553
O         27.71800        10.53433        -1.17727
O          5.98120         2.27931         1.59421
O          4.26473        10.22624        -1.33190
O         13.91458         3.82732        -1.79082
O          9.46177         5.91251         2.25981
O          4.51293        12.79303        -1.89606
H          4.41174        11.83765        -2.14045
O         26.17986        14.74515        -1.35299
H         25.76129        15.49586        -1.83301
O          8.44729        10.67361         2.07926
H          9.06459        11.35028         2.44289
O         19.70300         3.92845         2.43183
H         18.78141         4.05285         2.76713
O          6.73731        14.14060        -2.26364
H          5.87184        13.65770        -2.29006
O         19.67394        16.90233        -2.43276
H         20.50941        17.25268        -2.80747
O          8.36020         1.49149         2.34856
H          7.44372         1.76095         2.58943
O          8.50546         8.25613         2.57006
H          8.95370         7.54532         3.08111
O          7.58204         9.92586        -1.37165
H          6.80945         9.47576        -1.77462
O         24.87950         5.39008         2.14124
H         24.75125         6.25836         2.58045
O         13.52476        12.02862        -2.78189
H         12.88112        11.34964        -3.08628
O         15.13250        17.29745        -2.97873
H         14.33248        17.65633        -3.42086
O          3.31082         2.88739         1.94577
H          4.08398         2.37830         2.28089
O          5.87029        10.78476         1.81129
H          6.75170        10.81766         2.27057
O         28.58111         8.08583        -2.05483
H         27.98672         7.47790        -2.54951
O         11.55464         7.85238         2.19980
H         10.92024         7.25762         2.66534
O          6.85733        14.77664         1.33694
H          6.25480        15.23856         1.95853
O          9.10185        14.57940        -2.49223
H          8.29382        14.51520        -3.05475
O         28.50295         1.28611         1.10725
H         28.16886         1.94136         1.76546
O          9.74487        15.14958         0.98856
H          8.91402        14.85814         1.43591
O         23.15057         3.98449        -1.74445
H         23.87356         3.53725        -2.23407
O         20.79264         6.28621         2.55654
H         20.66148         5.33142         2.81051
O         18.05013         6.46568         2.22156
H         18.93541         6.65611         2.62878
O         29.20745         8.30805         1.50995
H         30.03274         8.36893         2.03530
O         24.22780        12.74851        -1.35043
H         24.88946        13.31334        -1.81909
H          0.62214         1.77270        -1.46110
H          0.53760         4.15412        -0.78280
H          2.76697         0.55054        -1.38783
H          0.29148         5.79147         0.35232
H          0.25945         8.23577         0.37707
H          0.37826        10.13492         1.10748
H          0.49885        12.54108         1.38385
H          0.53645        14.48439         1.39073
H          0.62813        16.93916         1.51826
H          1.81647        19.06794         1.21555
H          4.95424         0.41185        -0.99884
H          3.84921        20.32051         0.54367
H          7.77993         0.84002        -0.86603
H          6.23257        20.31904        -0.09241
H          9.92447         0.18107         0.64241
H          8.64461        20.30091        -0.43126
H         12.23550         0.16367         0.08918
H         10.96637        20.15958         0.08071
H         14.65735         0.15814        -0.14757
H         13.68876        20.20711        -0.04561
H         17.26578         0.12401        -0.24195
H         15.96543        20.33153        -0.64622
H         19.70086         0.22797        -0.18164
H         18.42284        20.34948        -0.78419
H         22.05639         0.28031        -0.34841
H         20.85766        20.36225        -0.47636
H         24.46914         0.30550        -0.68094
H         23.30235        20.40000        -0.32792
H         26.87254         0.31298        -0.91237
H         25.85855        20.43118         0.10223
H         29.37048         0.32083        -1.37175
H         28.27056        20.47108         0.42505
H         31.35226         1.65920        -1.90402
H         32.67806         3.74594        -1.70814
H         32.90246         6.11442        -1.13182
H         32.98408         7.94275        -0.00752
H         33.08767        10.30558         0.64277
H         33.10851        12.31837         0.33162
H         33.14851        14.76328         0.59673
H         32.93638        17.00618         0.33194
H         30.68444        20.48003         1.30878
H         32.75875        19.35346         1.05291
