         314
 CSIRO Nanostructure Databank - Neutral Graphene Oxide Data Set
C         30.75096        57.13121         1.98577
C         30.78484        58.49822         2.22389
C         29.77710        59.15746         2.97296
C         31.01755        61.26060         2.95455
C         29.88480        60.51437         3.29286
C         32.92773        52.86257         0.46214
C         32.82494        54.32902         0.40815
C         31.74536        55.07803         1.06619
C         33.04019        57.20104         1.03237
C         31.81898        56.43860         1.31160
C         33.11565        58.58612         1.28304
C         31.84241        59.34822         1.54948
C         33.27551        61.35412         1.99343
C         32.07886        60.68678         2.21032
C         35.40542        48.65544         0.45818
C         35.21116        49.90202        -0.16964
C         34.07269        50.73834         0.05671
C         35.23031        52.93657        -0.41125
C         34.03374        52.16186        -0.05320
C         35.40366        54.29281         0.21721
C         34.11728        55.10041         0.17912
C         35.40554        57.21348         0.41943
C         34.20087        56.52140         0.59169
C         35.49265        58.60791         0.65743
C         34.32783        59.29241         1.10320
C         35.58513        61.40805         1.11255
C         34.40513        60.71740         1.37387
C         37.84594        44.49785         1.09256
C         37.85190        45.79812         0.45988
C         36.74794        46.61415         0.75419
C         37.74927        48.53761        -0.38504
C         36.61560        47.93608         0.27006
C         37.60050        49.85945        -0.90955
C         36.29965        50.33229        -0.99754
C         37.65251        52.95664        -1.10983
C         36.27894        52.45334        -1.14609
C         37.77700        54.32033        -0.77250
C         36.52585        55.05958        -0.45093
C         37.87004        57.20105        -0.16493
C         36.55011        56.52544        -0.21871
C         37.86401        58.68347        -0.12505
C         36.70366        59.34088         0.36779
C         37.94136        61.45645         0.31470
C         36.74619        60.75580         0.58118
C         40.26131        40.13578         1.22235
C         40.19130        41.50571         0.91460
C         38.98702        42.21032         1.29229
C         40.28129        44.24674        -0.37242
C         38.59183        43.39718         0.65918
C         40.19356        45.65763        -0.53364
C         38.94521        46.37364        -0.32160
C         40.02365        48.37759        -1.41386
C         38.90513        47.74782        -0.65822
C         39.99830        49.87025        -1.69097
C         38.73553        50.65491        -1.50324
C         40.07583        52.83166        -1.34396
C         38.81530        52.16721        -1.33594
C         40.17987        54.24905        -1.17011
C         39.00381        54.97719        -0.87426
C         40.23478        57.17953        -1.10350
C         39.08103        56.42400        -0.54452
C         40.21284        58.68518        -0.97970
C         39.03878        59.38152        -0.39718
C         40.32902        61.47166        -0.38215
C         39.10141        60.79528        -0.16461
C         42.74501        35.87586         1.44144
C         42.69572        37.26221         1.26327
C         41.47594        37.98626         1.26078
C         42.69182        40.11267         0.92104
C         41.46074        39.38996         1.11749
C         42.63956        41.49564         0.61892
C         41.40671        42.17245         0.45759
C         42.67216        44.27619        -0.17519
C         41.43923        43.55842         0.00538
C         42.63662        45.62708        -0.65414
C         41.40539        46.32320        -0.79982
C         42.65385        48.39641        -1.54911
C         41.37318        47.66373        -1.40679
C         42.62911        49.84158        -1.92006
C         41.31997        50.59691        -1.84581
C         42.65144        52.79016        -1.31960
C         41.34183        52.04178        -1.39210
C         42.63927        54.26823        -1.36630
C         41.45964        54.97883        -1.26343
C         42.68101        57.18441        -1.35406
C         41.50986        56.44563        -1.24720
C         42.70017        58.64205        -1.18667
C         41.50917        59.37222        -0.97371
C         42.76403        61.46417        -0.79008
C         41.52887        60.78047        -0.71822
C         44.77675        33.27042         0.01243
C         43.80068        33.80898         0.81400
C         45.23360        35.86566         1.07341
C         44.02125        35.09106         1.55091
C         45.18115        37.27260         1.17710
C         43.93397        38.00667         1.17090
C         45.18963        40.11579         0.76559
C         43.93879        39.39784         1.00449
C         45.16717        41.45771         0.48685
C         43.92742        42.28813         0.70869
C         45.10125        44.27560        -0.33865
C         43.91406        43.61442        -0.01213
C         45.07467        45.63858        -0.74561
C         43.85360        46.32650        -0.89808
C         45.14350        48.42007        -1.39428
C         43.83006        47.73053        -1.28514
C         45.22596        49.89165        -1.63870
C         43.93794        50.62756        -1.88907
C         45.21722        52.78730        -1.38333
C         43.93477        52.10877        -1.70996
C         45.19993        54.26392        -1.28875
C         43.91654        54.96450        -1.62172
C         45.25728        57.17587        -1.48732
C         43.94966        56.47774        -1.63527
C         45.20930        58.61710        -1.15393
C         43.93436        59.34794        -1.14881
C         45.21697        61.49227        -0.99891
C         43.96903        60.76628        -0.99425
C         46.02940        33.89511        -0.14552
C         47.51503        35.81019        -0.08455
C         46.30401        35.19096         0.37396
C         48.03475        37.00457         0.42488
C         46.37157        38.03958         1.17412
C         47.72438        40.00394         0.56366
C         46.46209        39.39120         0.79845
C         47.73888        41.49343         0.53484
C         46.43730        42.12048         0.11759
C         47.64872        44.33296        -0.26248
C         46.40016        43.54744        -0.29212
C         47.56649        45.65705        -0.55100
C         46.32547        46.37647        -0.75912
C         47.44189        48.58057        -0.24464
C         46.33791        47.74603        -0.85409
C         47.58144        50.00316        -0.76639
C         46.43760        50.65106        -1.19666
C         47.70165        52.80855        -1.23928
C         46.39110        52.09937        -1.22527
C         47.76631        54.27811        -1.56591
C         46.48427        55.04283        -1.37807
C         47.77308        57.21207        -1.87206
C         46.45019        56.51686        -1.56866
C         47.74488        58.72875        -1.62964
C         46.48995        59.39225        -1.15256
C         47.69021        61.56536        -0.92607
C         46.45166        60.87547        -1.10030
C         48.97268        37.92353        -0.10529
C         50.12926        40.08235        -0.04663
C         48.92257        39.30845         0.20050
C         50.25451        41.43672         0.11968
C         49.02819        42.25009         0.36844
C         49.94376        44.24605        -1.12273
C         49.03148        43.74624         0.02708
C         50.07118        45.78112        -1.06433
C         48.78403        46.45691        -0.77621
C         50.05356        48.50187         0.00924
C         48.75988        47.81093        -0.17225
C         49.99442        49.99763         0.10414
C         48.79227        50.74467        -0.40453
C         50.03714        52.92845        -0.23786
C         48.85637        52.10984        -0.61643
C         49.97820        54.45851        -0.36934
C         49.11391        55.03035        -1.48960
C         50.15228        57.23677        -0.95757
C         49.00166        56.54437        -1.27755
C         50.21104        58.70003        -0.94623
C         48.99605        59.47117        -1.27370
C         50.11978        61.54635        -0.49756
C         48.91214        60.89287        -0.84265
C         51.59897        42.02028         0.00953
C         52.85986        44.10332         1.02858
C         52.07750        43.15769         0.50292
C         53.04345        45.44633         0.48586
C         51.31670        46.48727        -0.65329
C         52.59197        48.51706         0.13733
C         51.35564        47.78485        -0.20905
C         52.58354        49.90075         0.07568
C         51.32433        50.68975         0.13463
C         52.62134        52.87743        -0.33568
C         51.33476        52.18934        -0.02068
C         52.61855        54.36729        -0.37633
C         51.34184        55.13263        -0.40849
C         52.66303        57.19778        -0.45406
C         51.37461        56.47939        -0.61843
C         52.60869        58.68606        -0.33676
C         51.32692        59.39734        -0.53597
C         52.53873        61.52568        -0.02302
C         51.33140        60.84468        -0.36680
C         53.74168        46.44752         1.09119
C         54.88628        48.59285         1.07002
C         53.78845        47.84681         0.66708
C         55.00707        50.00028         0.82330
C         53.86504        50.64343         0.14408
C         55.02616        52.90351         0.52141
C         53.89799        52.14211        -0.03719
C         54.99040        54.33037         0.52774
C         53.84807        55.06482         0.06639
C         54.93637        57.16515         0.64473
C         53.82212        56.46098         0.13198
C         54.85205        58.61208         0.90733
C         53.64201        59.38528         0.48100
C         54.91003        61.49855         0.74990
C         53.70989        60.86051         0.37148
C         56.11656        50.75816         1.14858
C         57.29119        52.93261         1.43128
C         56.15401        52.19785         1.01308
C         57.30853        54.33916         1.40076
C         56.13714        55.04879         0.97550
C         57.25595        57.20812         1.49165
C         56.11117        56.47522         1.02615
C         57.22520        58.62763         1.57116
C         56.07799        59.35111         1.23239
C         57.29545        61.48200         1.39236
C         56.06656        60.79322         1.16409
C         58.46860        55.09130         1.77220
C         59.67772        57.23108         2.04450
C         58.46503        56.48404         1.80247
C         59.69226        58.61072         2.09651
C         58.38461        59.36278         2.19173
C         59.70636        61.46861         1.87559
C         58.46500        60.81177         1.76296
C         60.90091        59.36140         2.20581
C         60.89093        60.74933         2.12634
O         36.05279        51.32844        -1.94354
O         38.78581        56.66706         0.87812
O         46.46745        42.46932        -1.32442
O         52.70580        53.55332        -1.62461
O         45.85484        54.73532        -0.06410
O         47.50905        37.40927         1.67929
O         45.48270        48.95300        -2.74023
O         47.84677        53.31420        -2.64626
O         53.09370        58.05998        -1.57515
O         50.37163        43.56125        -2.01668
O         42.07136        52.18528        -0.10693
O         49.31113        46.42035        -2.14904
O         33.23954        54.86321        -0.93029
O         43.99984        51.52424        -3.04727
O         39.12439        50.18684        -2.83094
O         52.43454        45.66755        -0.76307
O         54.25925        51.24791        -1.14919
O         39.12684        43.52688        -0.64357
O         49.34195        47.86332         1.16496
O         39.88946        58.00091        -2.26280
O         50.60284        52.74038         1.11859
O         40.48064        47.65083        -2.58532
O         48.47889        59.39981        -2.68697
O         43.92566        55.69284        -2.88803
O         48.41863        42.08168         1.70724
O         46.00295        58.82298         0.10704
O         41.89443        50.23314        -3.12535
O         53.71789        58.90829         1.85939
O         36.15758        55.96928        -1.53250
O         50.57104        50.38307         1.38217
O         58.07715        59.40955         3.63353
H         58.80502        59.90512         4.06565
O         49.31051        54.90987         0.83618
H         49.70147        54.41658         1.59255
O         35.78986        54.14511         1.61198
H         35.17758        53.50482         2.03187
O         49.54637        44.42803         1.19889
H         49.14927        43.98405         1.98312
O         44.26614        34.77129         2.97907
H         44.51220        35.60744         3.42844
O         47.92970        56.99889        -3.31225
H         48.40010        57.79915        -3.65509
O         49.80066        54.85109        -2.73237
H         49.23503        55.23074        -3.44140
O         46.98242        48.78463         1.12651
H         47.77736        48.66695         1.70636
O         44.01836        42.67937         2.13892
H         43.91467        41.86278         2.67357
O         31.28971        59.67501         0.22577
H         31.14746        58.82850        -0.24943
H         29.89992        56.53947         2.35832
H         28.92512        58.57392         3.35263
H         31.12022        62.29155         3.32462
H         29.08974        60.98805         3.88610
H         32.08516        52.29695         0.88810
H         30.86265        54.51945         1.41393
H         33.39444        62.38444         2.36411
H         34.61116        48.21812         1.08020
H         33.20938        50.26809         0.55517
H         35.63636        62.48703         1.32213
H         37.20689        44.38533         1.98178
H         35.91262        46.18321         1.32596
H         37.98283        62.53977         0.50121
H         39.34346        39.61552         1.53361
H         38.40530        41.81085         2.13682
H         40.37852        62.55700        -0.21049
H         41.79759        35.32007         1.51760
H         40.52707        37.44634         1.39395
H         42.78865        62.55259        -0.63500
H         44.59650        32.31344        -0.49890
H         42.83365        33.29906         0.93151
H         45.17128        62.58503        -0.87846
H         46.80103        33.39900        -0.75148
H         48.02829        35.33942        -0.93733
H         47.66346        62.65037        -0.74394
H         49.75849        37.57032        -0.79044
H         51.03590        39.50473        -0.28670
H         50.09908        62.62616        -0.28750
H         52.32867        41.38549        -0.53433
H         53.30796        43.91459         2.02304
H         52.52309        62.62617        -0.00682
H         54.31426        46.19362         1.99686
H         55.71235        48.08267         1.58812
H         54.96528        62.59613         0.68899
H         56.99637        50.26187         1.58569
H         58.17816        52.39023         1.79098
H         57.33537        62.56594         1.20240
H         59.39173        54.54850         2.02457
H         60.62541        56.67406         2.11126
H         59.75912        62.55378         1.70368
H         61.85674        58.82407         2.29274
H         61.84099        61.29815         2.19263
