         424
 CSIRO Nanostructure Databank - Neutral Graphene Oxide Data Set
C          1.35923         1.95076        -1.17639
C          1.32192         3.35301        -1.16119
C          2.55939         1.27609        -1.01863
C          2.49075         4.11137        -0.99414
C          1.27629         6.28962        -1.08124
C          1.25035         7.68512        -1.00426
C          2.47214         5.56899        -0.96164
C          2.41976         8.43190        -0.83075
C          1.20399        10.61194        -0.55538
C          1.20428        12.03691        -0.38734
C          2.36496         9.87373        -0.60945
C          2.35138        12.77639        -0.28348
C          1.15662        14.99833        -0.66067
C          1.19673        16.32744        -0.91968
C          2.36224        14.28287        -0.10508
C          2.43180        17.07206        -0.85171
C          2.45144        18.47875        -0.98035
C          3.76354         2.00228        -0.84800
C          3.73653         3.42918        -0.84163
C          5.00470         1.32910        -0.66315
C          4.95887         4.15646        -0.69294
C          3.69944         6.29301        -0.80909
C          3.68029         7.72996        -0.77896
C          4.93915         5.59843        -0.70252
C          4.90673         8.43460        -0.70520
C          3.64065        10.56720        -0.34072
C          3.63966        12.07243        -0.18846
C          4.88742         9.92836        -0.90263
C          4.90513        12.80332        -0.42144
C          3.66029        14.94554        -0.53112
C          3.66508        16.35170        -0.72529
C          4.89062        14.22628        -0.53711
C          4.89946        17.06995        -0.80699
C          3.64168        19.18382        -0.95467
C          4.89528        18.50308        -0.86709
C          6.18221         2.03066        -0.49448
C          6.18122         3.46091        -0.52879
C          7.44736         1.25948        -0.20786
C          7.43066         4.18670        -0.46397
C          6.16441         6.31807        -0.60312
C          6.14151         7.75520        -0.61954
C          7.41117         5.62973        -0.52526
C          7.37148         8.49376        -0.54164
C          6.15436        10.63568        -0.49797
C          6.12200        12.09197        -0.42613
C          7.34309         9.93608        -0.50683
C          7.34623        12.81583        -0.39169
C          6.13242        14.92580        -0.69569
C          6.13920        16.36601        -0.79479
C          7.34995        14.19934        -0.58684
C          7.34811        17.09959        -0.80533
C          6.11180        19.21137        -0.81409
C          7.35281        18.52941        -0.75211
C          8.71343         2.06415        -0.38584
C          8.64935         3.49167        -0.41086
C          9.92460         1.39879        -0.44696
C          9.92901         4.24435        -0.67212
C          8.62522         6.37593        -0.43202
C          8.60253         7.80256        -0.40656
C          9.87742         5.69587        -0.28318
C          9.84649         8.52058        -0.22468
C          8.64146        10.69395        -0.67480
C          8.59549        12.05952        -0.00245
C          9.87277         9.93190        -0.26187
C          9.89848        12.79677        -0.23257
C          8.64157        14.88805        -0.79474
C          8.63493        16.40391        -0.90514
C          9.90255        14.22316        -0.41642
C          9.87243        17.12361        -0.59096
C          8.58853        19.22521        -0.65998
C          9.83504        18.55142        -0.52202
C         11.18541         2.09057        -0.34658
C         11.17263         3.52028        -0.23390
C         12.39639         1.40577        -0.23400
C         12.33037         4.21291         0.09127
C         11.03693         6.38454         0.03670
C         11.05245         7.81455         0.04531
C         12.24492         5.64527         0.55073
C         12.28179         8.52872         0.21974
C         11.07512        10.63931        -0.09557
C         11.07903        12.08665        -0.19724
C         12.29937         9.93688         0.12193
C         12.38782        12.78593        -0.46815
C         11.08728        14.95352        -0.31800
C         11.07260        16.41193        -0.35373
C         12.34126        14.25846        -0.13808
C         12.25937        17.12385        -0.09647
C         11.05393        19.24943        -0.35192
C         12.27064        18.55274        -0.16366
C         13.61315         2.10970        -0.01825
C         13.57692         3.53014         0.19440
C         14.85180         1.43885         0.01460
C         14.78467         4.25194         0.44087
C         13.54238         6.40501         0.44259
C         13.52430         7.80968         0.41815
C         14.76559         5.69678         0.56598
C         14.74594         8.53738         0.58518
C         13.54034        10.67348         0.26972
C         13.57879        12.07244         0.12329
C         14.74728         9.96699         0.55678
C         14.77659        12.79291         0.35739
C         13.51090        14.93673         0.13410
C         13.46846        16.40945         0.44604
C         14.76691        14.24119         0.27564
C         14.76273        17.11430         0.14773
C         13.51409        19.23964        -0.06952
C         14.74982        18.54235        -0.00364
C         16.05439         2.14228         0.23053
C         16.02101         3.56698         0.45679
C         17.29930         1.47448         0.19150
C         17.24455         4.27695         0.68308
C         15.97757         6.40800         0.77479
C         15.96053         7.83576         0.81462
C         17.22681         5.69613         0.90065
C         17.15918         8.57325         1.09010
C         15.95754        10.68500         0.78027
C         15.97119        12.10962         0.70911
C         17.15386         9.95945         1.08995
C         17.22284        12.83473         0.85109
C         15.96942        14.95644         0.35782
C         15.96620        16.40256         0.20706
C         17.22111        14.27005         0.57074
C         17.20914        17.10641         0.12889
C         15.97751        19.23046        -0.09475
C         17.20870        18.53914        -0.01909
C         18.50807         2.16857         0.38902
C         18.47799         3.58285         0.68139
C         19.74824         1.49943         0.28315
C         19.69881         4.27600         0.95141
C         18.42543         6.38203         1.18978
C         18.37822         7.83661         1.59514
C         19.66438         5.69540         1.23482
C         19.66851         8.58915         1.34168
C         18.36778        10.71030         1.58640
C         18.40825        12.16115         1.14740
C         19.65856         9.95300         1.34328
C         19.68998        12.82816         1.01717
C         18.41346        14.98894         0.54406
C         18.43103        16.39983         0.26145
C         19.70598        14.34633         0.99450
C         19.66445        17.12003         0.20818
C         18.43538        19.23713        -0.03730
C         19.66288        18.55307         0.09691
C         20.96473         2.18576         0.46879
C         20.92015         3.57664         0.84169
C         22.20256         1.49568         0.42404
C         22.17348         4.21233         1.22754
C         20.88304         6.43234         1.41969
C         20.91622         7.83911         1.35138
C         22.15415         5.71074         1.56504
C         22.16541         8.54499         1.30266
C         20.93156        10.72825         1.56892
C         20.88036        12.14034         1.02983
C         22.18820         9.95386         1.25292
C         22.16951        12.74409         0.49207
C         20.88870        14.92896         0.21575
C         20.90856        16.43341         0.33922
C         22.19492        14.25682         0.56628
C         22.08769        17.13960         0.48949
C         20.89351        19.25395         0.14145
C         22.10371        18.57545         0.37292
C         23.45220         2.16101         0.54559
C         23.44350         3.67484         0.59620
C         24.65128         1.49093         0.50341
C         24.71323         4.27253         1.15266
C         23.41976         6.42907         1.47528
C         23.41944         7.81319         1.33619
C         24.68285         5.65573         1.77448
C         24.66600         8.53884         1.38882
C         23.41735        10.65643         1.19286
C         23.42363        12.08090         1.01672
C         24.65812         9.94715         1.31721
C         24.61239        12.79626         1.09532
C         23.34427        14.95718         0.76052
C         23.33205        16.46427         0.99122
C         24.60821        14.24945         0.97719
C         24.60096        17.19172         0.61763
C         23.34117        19.26898         0.43802
C         24.59309        18.60059         0.51706
C         25.97682         2.19306         0.50046
C         25.90761         3.61732         1.03210
C         27.05572         1.42272         1.28280
C         27.17103         4.29331         1.28406
C         25.94080         6.43346         1.48572
C         25.90832         7.81448         1.46813
C         27.19103         5.70798         1.41046
C         27.18929         8.56357         1.74062
C         25.90169        10.68428         1.31987
C         25.87376        12.10469         1.25306
C         27.14442        10.01524         1.36585
C         27.09767        12.81358         1.28300
C         25.77451        14.95538         1.10916
C         25.84481        16.45709         1.03636
C         27.06205        14.27861         1.37163
C         27.06619        16.83915         0.23829
C         25.80093        19.44800         0.58583
C         27.01135        19.04281         0.07829
C         28.37898         2.11352         1.05908
C         28.40390         3.56054         1.11128
C         29.53094         1.40836         0.84850
C         29.62075         4.23336         0.95236
C         28.41949         6.42701         1.29864
C         28.43076         7.83455         1.27865
C         29.73029         5.68269         1.34249
C         29.60139         8.55762         0.96101
C         28.35370        10.71703         1.19942
C         28.33715        12.14273         1.16507
C         29.58567         9.99359         0.93728
C         29.56662        12.87399         0.92596
C         28.35737        15.03400         1.19065
C         28.29164        16.38257         0.57581
C         29.58014        14.27744         0.86806
C         29.53758        17.23715         0.65457
C         28.36415        19.51567         0.17673
C         29.50159        18.67343         0.11441
C         30.76831         2.07185         0.51884
C         30.79746         3.52897         0.53920
C         31.90664         1.33820         0.24333
C         31.96207         4.23397         0.20035
C         30.85706         6.41385         0.67248
C         30.81559         7.83705         0.57468
C         32.01013         5.68898         0.23849
C         31.91244         8.53689         0.07496
C         30.72418        10.71368         0.54913
C         30.75236        12.13645         0.58636
C         31.84820        10.01417        -0.16497
C         31.96655        12.83211         0.33001
C         30.75278        15.00392         0.47740
C         30.77517        16.42761         0.33172
C         31.96948        14.26630         0.31913
C         31.98105        17.10612         0.10571
C         30.75795        19.26584        -0.10453
C         31.98808        18.54918        -0.09063
C         33.07100         1.98168        -0.34935
C         33.09177         3.51300        -0.39766
C         34.36211         1.30451        -0.49828
C         34.40814         4.17453        -0.46516
C         33.13683         6.36097        -0.24505
C         33.09848         7.83217        -0.51437
C         34.35107         5.65383        -0.78986
C         34.41951         8.54530        -0.25212
C         33.19071        10.69257        -0.00744
C         33.19288        12.08903         0.13307
C         34.40087         9.93817        -0.13824
C         34.45336        12.79100         0.21708
C         33.18979        14.98718         0.24641
C         33.21986        16.39001         0.12134
C         34.43339        14.24220         0.47487
C         34.46979        17.10660        -0.02575
C         33.20508        19.21090        -0.30014
C         34.45730        18.52728        -0.27734
C         35.54112         1.98097        -0.69076
C         35.58577         3.45998        -0.53720
C         36.63969         1.19542        -1.28361
C         36.83132         4.23341        -0.62145
C         35.62662         6.41775        -0.52175
C         35.64535         7.78498        -0.29886
C         36.85365         5.66684        -0.71059
C         37.00910         8.42619         0.00605
C         35.68721        10.69311        -0.40238
C         35.65450        12.12398         0.09860
C         36.93452         9.94750         0.01554
C         36.90183        12.84627         0.17675
C         35.73201        15.01341         0.38476
C         35.69775        16.43284         0.02088
C         36.96000        14.25464         0.15715
C         36.93449        17.08968        -0.24101
C         35.67714        19.19789        -0.47411
C         36.92214        18.51091        -0.46546
C         37.95616         1.46212        -1.07270
C         38.08099         3.61334        -0.61403
C         39.14693         1.07896        -1.80809
C         39.21692         4.18780        -1.23704
C         38.06214         6.33817        -0.96243
C         38.06957         7.85625        -1.01022
C         39.21155         5.60768        -1.38578
C         39.51762         8.37592        -0.98115
C         38.02758        10.67872         0.35174
C         38.11353        12.12480         0.27912
C         39.92083         9.58326        -0.39377
C         39.32955        12.83071         0.29074
C         38.17880        14.93552        -0.04820
C         38.16437        16.36943        -0.24687
C         39.40134        14.20444        -0.03945
C         39.39392        17.04625        -0.44845
C         38.15541        19.17532        -0.64127
C         39.37925        18.47431        -0.62111
C         40.19393         1.93583        -2.00336
C         40.26672         3.37884        -1.79144
C         41.34069         4.05860        -2.38842
C         40.36277         6.25625        -1.93908
C         40.48818         7.70432        -1.77954
C         41.40448         5.45808        -2.42829
C         41.65099         8.39904        -2.18145
C         41.03305        10.33882        -0.85818
C         41.16619        11.74930        -0.49073
C         41.86270         9.72548        -1.82048
C         41.81234        12.72870        -1.20844
C         40.64340        14.85510        -0.43134
C         40.63761        16.32470        -0.49745
C         41.70646        14.14265        -0.97850
C         41.82155        17.05448        -0.63148
C         40.61992        19.16034        -0.77961
C         41.80818        18.45924        -0.76519
O         26.93831        17.85647        -0.69519
O         32.72574         2.73442        -1.58518
O         38.22646         2.36156        -0.02193
O          3.75785        11.14829         0.97750
O         22.20170         4.64688         2.61389
O         39.21460        10.02450         0.73299
O         40.49655        12.14570         0.68077
O         27.81778        14.84423         2.55395
O          8.73395        15.53796        -2.10713
O         35.12381        14.68919         1.69383
O         29.64600        17.49351         2.10476
H         29.68412        16.62505         2.56157
O         22.14698        12.38827        -0.93791
H         21.44834        12.95802        -1.34807
O          8.48485        11.80827         1.42625
H          8.40593        12.66836         1.88820
O         18.23982        10.74090         3.06232
H         18.18348         9.79183         3.34757
O         37.58040         8.25338        -2.31995
H         38.14785         7.83421        -3.00001
O         37.38273         7.98090         1.32648
H         38.17163         8.50292         1.59869
O         30.08296         5.63898         2.79292
H         29.38420         5.11980         3.24591
O         27.28668         8.58273         3.21565
H         27.15897         7.66153         3.52976
O         32.91777         7.95862        -2.02691
H         32.13977         7.40035        -2.25230
O         20.99741        10.91387         3.03359
H         20.06807        11.06725         3.34339
O         12.00278         5.54674         2.00877
H         12.76850         5.07339         2.39883
O         20.62041        14.63386        -1.19724
H         21.20076        15.20733        -1.74126
O         23.35680         4.14246        -0.79456
H         24.12120         3.77168        -1.28367
O          2.30690        14.48359         1.35814
H          2.28380        15.45143         1.51661
O          7.49446         0.04996        -0.97562
H          7.46418         0.28903        -1.92431
O         31.51843        10.19846        -1.60020
H         32.11510         9.57837        -2.09364
O         19.90134        14.75041         2.37770
H         19.18735        14.35080         2.91703
O         35.75241        10.81416        -1.86955
H         34.87863        11.13437        -2.17897
O         26.10332        16.92868         2.41315
H         26.80393        16.33043         2.78941
O         34.22976         5.65246        -2.26264
H         34.10718         6.59503        -2.53427
O         12.57991        12.70330        -1.93088
H         11.79481        13.11817        -2.34914
O         24.70654         5.44451         3.23553
H         23.82915         5.04758         3.46305
O         13.31432        16.49000         1.92166
H         13.35194        17.44133         2.16042
O         18.24489         7.86024         3.07428
H         17.49369         7.27389         3.30932
O         26.72614         1.39587         2.67699
H         26.63101         2.32047         2.98804
O         23.28274        16.61895         2.45877
H         24.21490        16.68131         2.78494
O         26.44909         2.22871        -0.88032
H         25.73126         2.58844        -1.44132
O          8.76659        10.93756        -2.10994
H          8.97483        10.08419        -2.54469
O          4.77834        10.14467        -2.35690
H          5.58541         9.77660        -2.77522
O         10.03579         4.28377        -2.15412
H         10.09991         3.35283        -2.45826
H          0.42472         1.38804        -1.30977
H          0.34988         3.84896        -1.28357
H          2.58806         0.17720        -1.02275
H          0.32257         5.76204        -1.21414
H          0.27793         8.19231        -1.06540
H          0.22819        10.12628        -0.69698
H          0.22435        12.53468        -0.39248
H          0.19640        14.46679        -0.71592
H          0.28219        16.86378        -1.21558
H          1.49724        19.01636        -1.08172
H          5.02459         0.22947        -0.64737
H          3.63581        20.28111        -1.02146
H          7.40770         0.93768         0.87235
H          6.09924        20.31097        -0.81896
H          9.92543         0.29879        -0.46229
H          8.57677        20.32494        -0.64464
H         12.41646         0.30889        -0.31374
H         11.05627        20.34887        -0.36121
H         14.88504         0.35242        -0.15406
H         13.52542        20.33606        -0.15360
H         17.32469         0.39549        -0.02072
H         15.97851        20.32448        -0.20735
H         19.76188         0.42321         0.05666
H         18.43257        20.33378        -0.12114
H         22.19629         0.40335         0.29469
H         20.89511        20.34843         0.03112
H         24.65504         0.39840         0.36566
H         23.33006        20.36749         0.37826
H         27.10601         0.36371         0.93122
H         25.70681        20.41142         1.10799
H         29.51028         0.30812         0.84349
H         28.54271        20.60305         0.22437
H         31.91640         0.24982         0.40505
H         30.79628        20.34152        -0.34004
H         34.35574         0.20637        -0.57795
H         33.19980        20.29811        -0.47217
H         36.35024         0.41826        -2.00676
H         35.67160        20.28587        -0.63971
H         39.20514         0.06865        -2.24206
H         38.16492        20.26511        -0.79328
H         41.05887         1.52855        -2.55370
H         42.15464         3.47720        -2.84615
H         42.29566         5.92567        -2.86905
H         42.38754         7.90218        -2.82681
H         42.73119        10.26725        -2.22057
H         42.46250        12.42189        -2.04201
H         42.50589        14.73580        -1.45034
H         42.79212        16.53934        -0.62563
H         40.61696        20.25287        -0.90229
H         42.76281        18.99431        -0.86815
