         280
 CSIRO Nanostructure Databank - Neutral Graphene Oxide Data Set
C         30.41714        31.60614        -0.11807
C         30.47832        32.87298        -0.12960
C         29.43564        38.45278        -1.16784
C         30.39281        38.34773        -0.36153
C         30.76375        39.90286         1.82113
C         30.81378        41.09745         1.47983
C         32.77487        28.73534         0.04677
C         31.73841        29.36398        -0.23755
C         32.80636        31.48612        -0.35917
C         31.57379        30.78291        -0.31166
C         32.83851        32.92079         0.16545
C         31.56301        33.74484        -0.02924
C         32.75231        35.89999         0.05453
C         31.56855        35.15902         0.12257
C         32.68914        37.40112        -0.20460
C         31.47984        38.06626         0.47564
C         32.89071        40.41180        -0.31700
C         31.36433        38.61360         1.78711
C         32.87244        41.66845         0.40312
C         31.70141        42.13034         1.05353
C         32.79637        44.26694         1.17885
C         31.84317        43.50719         1.44827
C         35.57095        27.19383         0.11034
C         35.31871        28.60407         0.57584
C         34.13865        29.22953        -0.13875
C         35.44240        31.55700        -0.36982
C         34.10682        30.77365        -0.43310
C         35.26343        33.05083        -0.13556
C         34.07980        33.70378        -0.16957
C         35.26567        35.99909        -0.35222
C         33.97631        35.19426        -0.49940
C         35.27862        37.35920        -0.33919
C         34.03713        38.12940         0.10609
C         35.30937        40.34773        -0.27386
C         34.06737        39.61060        -0.28964
C         35.31628        41.75139        -0.14914
C         34.15801        42.37831         0.50397
C         35.21046        44.72085         0.14743
C         34.17501        43.88204         0.86841
C         35.43797        46.07758         0.77939
C         37.93981        27.39574        -0.49276
C         36.64137        26.80241        -0.36243
C         37.80424        28.82503        -0.10813
C         36.63517        29.40014         0.30764
C         37.83866        31.63120         0.37026
C         36.51545        30.90342         0.56360
C         37.77618        33.09885         0.12782
C         36.47735        33.87018         0.22494
C         37.74292        36.02433        -0.09064
C         36.54645        35.20152        -0.55753
C         37.88258        37.41307        -0.68673
C         36.49660        38.15640        -0.81906
C         37.76437        40.30002        -0.39602
C         36.55191        39.62485        -0.44282
C         37.83566        41.77685        -0.45496
C         36.52515        42.56222        -0.36207
C         37.82023        44.64710         0.18035
C         36.58156        43.99188         0.04146
C         37.90728        45.97594         0.69424
C         36.61208        46.43722         1.00002
C         40.34842        24.70715        -1.05641
C         39.30074        25.39655        -1.09239
C         40.45010        27.57821        -0.89944
C         39.11681        26.79732        -0.85669
C         40.30218        28.79865         0.07078
C         39.06793        29.63033        -0.34203
C         40.36765        31.77837         0.18341
C         39.04253        31.01074         0.24329
C         40.16108        33.05601         1.01995
C         39.05011        33.84318         0.29844
C         40.32228        36.02023         0.28409
C         38.99445        35.33085         0.31646
C         40.18130        37.51582         0.63555
C         39.00316        38.21410        -0.04480
C         40.28228        40.33821        -0.23141
C         39.00415        39.57648        -0.18555
C         40.29031        41.81639        -0.16704
C         39.11633        42.49459        -0.18929
C         40.40159        44.66043         0.16085
C         39.11014        44.00873        -0.33205
C         40.45480        46.00959         0.56048
C         39.16293        46.70198         1.02791
C         40.36484        48.75361         0.45324
C         39.31357        48.11028         0.48429
C         42.90002        24.52988        -0.35723
C         41.47902        24.92472        -0.14921
C         42.71967        27.30317         0.46219
C         41.74314        26.75687        -0.60331
C         42.78653        28.82655         0.44688
C         41.60140        29.57767         0.28295
C         42.78207        31.63956         0.95219
C         41.59586        30.96693         0.57380
C         42.79755        33.13720         1.35890
C         41.43361        33.85250         1.26072
C         42.44464        35.93539         0.10808
C         41.42269        35.32226         1.04419
C         42.62829        37.42218         0.24273
C         41.49982        38.17509         0.35878
C         42.81799        40.31840         0.31126
C         41.55138        39.59844        -0.01931
C         42.83779        41.80574         0.16429
C         41.61876        42.51445        -0.42719
C         42.85478        44.63592         0.02751
C         41.61417        43.96986        -0.03006
C         42.89087        46.01920         0.33042
C         41.69235        46.69954         0.62476
C         42.96861        48.78833         0.43989
C         41.68025        48.25471         0.97105
C         43.88609        25.25050        -0.11887
C         45.22625        27.27482         0.59372
C         44.08698        26.62463         0.25146
C         45.09148        28.59098         1.42924
C         43.96510        29.46297         0.87241
C         45.26909        31.42861         1.41233
C         43.96576        30.85854         1.13096
C         45.23518        33.56073         0.82327
C         43.87774        33.97038         0.59861
C         44.87366        35.80605        -0.73594
C         43.69734        35.14146        -0.10487
C         44.74364        37.26512        -0.88549
C         43.85697        38.04896        -0.20379
C         45.39485        40.22415         0.13901
C         44.07587        39.48732         0.17775
C         45.39345        41.75238         0.45763
C         44.13587        42.48571         0.00085
C         45.28889        44.58757        -0.51467
C         44.12030        43.88830        -0.17868
C         45.13158        46.09854        -0.80298
C         44.30560        46.68528         0.34437
C         43.99324        48.13834         0.25495
C         47.66434        27.26977         1.03308
C         46.57988        26.87210         0.55835
C         47.83064        28.66187         1.46807
C         46.49690        29.40477         1.72468
C         47.66008        31.64391         0.80100
C         46.48328        30.82215         1.11916
C         47.64061        33.13757         0.39890
C         46.40721        33.95552         0.22029
C         47.63856        36.02704        -0.58970
C         46.35516        35.21995        -0.58312
C         47.81620        37.38390        -0.72916
C         46.72636        38.34043        -0.89908
C         47.95612        40.19855         0.14604
C         46.66205        39.57643        -0.31745
C         47.94530        41.70661        -0.16225
C         46.69033        42.47894         0.05797
C         47.84251        44.52966        -1.06716
C         46.61002        43.91386        -0.40676
C         47.62296        45.98645        -1.07128
C         46.54909        46.56549        -0.91439
C         50.13052        28.82733         0.32039
C         49.00692        29.47869         1.00558
C         50.13343        31.73022         0.57754
C         48.87542        30.95788         0.73289
C         50.06873        32.96106        -0.30229
C         48.79847        33.74847        -0.02949
C         50.08303        35.87314         0.20953
C         48.91580        35.17940        -0.54443
C         50.23614        37.36282         0.05119
C         49.20139        38.01997        -0.84357
C         50.36724        40.25616        -0.04618
C         49.13339        39.59863        -0.66328
C         50.40277        41.63532        -0.21688
C         49.12255        42.33255        -0.48365
C         50.47188        44.31617        -0.86518
C         49.12423        43.75931        -0.99066
C         51.01471        29.47957        -0.33038
C         52.42114        31.70231        -0.55577
C         51.50999        30.73672        -0.34719
C         52.54484        32.96074        -0.28379
C         51.37257        33.76343        -0.10473
C         52.42538        35.91260         0.68418
C         51.33649        35.06245         0.33744
C         52.58968        37.14230         0.65660
C         51.61701        38.09999         0.00340
C         52.59241        40.37298         0.80779
C         51.40362        39.45498         0.73903
C         52.68537        41.57090         0.46776
C         51.63734        42.39656        -0.01114
C         51.45360        43.76600        -0.31758
O         37.18085        42.30442        -1.67045
O         41.08853        39.83661        -1.39299
O         44.57631        28.16128         2.65170
O         45.57798        35.12264        -1.80675
O         48.86630        29.01525         2.38361
O         45.39871        32.70740         1.89930
O         34.26782        29.73613        -1.46366
O         49.63757        37.73970        -2.17206
O         44.92536        39.52122         1.37035
O         46.94448        43.58909         0.99201
O         41.35317        34.84781         2.39268
O         38.08687        35.92499         1.31950
O         42.67977        41.16385         1.49645
O         34.59364        42.92325         1.83890
O         49.76962        36.79879         1.29782
O         45.67371        37.89034        -1.69871
O         38.62561        33.39777        -1.02595
O         36.31666        38.18778        -2.32955
O         41.24951        35.88330        -0.91180
O         48.37918        43.91944        -2.23964
O         42.31603        26.99096         1.82332
H         43.07230        27.37067         2.38771
O         43.14988        33.11484         2.74950
H         42.81620        33.94497         3.16030
O         36.27158        34.17698         1.62744
H         36.05981        33.32902         2.08316
O         38.38759        37.14721        -2.02381
H         38.65308        37.99301        -2.44436
O         35.01901        28.63830         1.96291
H         35.65306        28.06093         2.43593
O         39.22696        46.80919         2.44620
H         40.01907        47.35277         2.68014
O         34.69577        44.88753        -1.17428
H         35.27636        45.50398        -1.66744
O         34.11247        38.13518         1.56790
H         34.97266        38.52595         1.83240
O         44.41790        46.30868        -2.00735
H         44.96740        46.02502        -2.76643
O         36.69096        34.88728        -1.94727
H         37.09327        35.66008        -2.40605
O         32.48495        37.58361        -1.63933
H         31.57323        37.26437        -1.84398
O         35.01512        38.74767        -2.61982
H         35.23947        39.59646        -3.07454
O         41.65760        48.35942         2.38528
H         41.66426        49.30761         2.63427
O         49.37792        35.09445        -1.91779
H         49.48011        36.05278        -2.24587
O         41.81007        42.47047        -1.86530
H         41.08693        42.99669        -2.27449
O         31.85924        38.08649         2.90972
H         32.42986        37.31580         2.70604
O         39.64766        32.65596         2.30704
H         39.86870        33.36420         2.95117
O         36.07761        31.16720         1.91528
H         36.68555        30.71120         2.53473
O         49.96424        32.50552        -1.65858
H         49.77778        33.30567        -2.21294
O         31.84631        40.15279        -1.08585
H         31.97629        39.29601        -1.57792
O         39.07390        29.95462        -1.77749
H         38.23834        30.44346        -1.96599
O         48.18011        40.00234         1.55796
H         47.38663        40.32506         2.04219
O         51.99492        38.32829        -1.31832
H         51.22913        38.05888        -1.93083
O         44.96119        46.38210         1.55751
H         44.48025        46.79797         2.30176
O         36.06433        31.47305        -1.67614
H         35.50756        31.95345        -2.32545
O         39.94413        28.28498         1.37341
H         40.72945        27.80534         1.75419
O         39.95054        37.64292         2.06018
H         39.15102        37.10565         2.27835
O         48.98746        40.11250        -1.98906
H         49.25705        39.34488        -2.58028
O         50.89603        39.19537         2.03971
H         49.99204        39.58180         2.13523
O         41.08746        24.75039         1.15171
H         41.78426        25.09262         1.75727
O         40.69594        32.16540        -1.17219
H         40.32455        31.48236        -1.77820
O         42.50927        26.69986        -1.76882
H         41.91054        26.73744        -2.54791
O         46.47928        29.64849         3.13059
H         45.73980        29.07442         3.48813
O         33.77716        35.16023        -1.95494
H         33.61142        36.08895        -2.24850
O         39.13004        44.24710        -1.77484
H         38.37917        43.72362        -2.15236
O         30.37701        35.75584         0.35667
H         29.65815        35.09165         0.32666
O         32.93724        32.75825         1.62815
H         32.16878        32.22290         1.92423
O         45.35830        41.86962         1.90128
H         44.51535        41.45042         2.20385
O         50.74594        31.95437         1.78139
H         50.52246        31.24330         2.41924
O         40.60295        28.00933        -2.26274
H         39.81110        28.53583        -2.52445
