         314
 CSIRO Nanostructure Databank - Neutral Graphene Oxide Data Set
C         30.72266        57.24828        -1.29635
C         30.75513        58.63639        -1.29637
C         29.88846        59.44450        -2.08571
C         31.04633        61.48885        -1.39764
C         30.02817        60.82915        -2.10664
C         32.88830        52.85501        -0.66774
C         32.88862        54.27506        -0.53083
C         31.75885        55.05148        -0.87260
C         32.87597        57.07345        -0.05740
C         31.76447        56.45099        -0.70539
C         32.76501        58.49545         0.29182
C         31.69875        59.32718        -0.39226
C         33.06056        61.38615         0.01720
C         31.94084        60.77886        -0.56846
C         35.33884        48.58879        -1.04704
C         35.39719        50.02972        -1.06788
C         34.18379        50.72731        -0.90935
C         35.31669        52.82788        -0.43728
C         34.11055        52.12895        -0.65505
C         35.25622        54.12379         0.30346
C         34.06447        54.94905        -0.07492
C         35.26170        56.95608         0.76479
C         34.05785        56.32619         0.21866
C         35.19865        58.38974         1.14475
C         33.95110        59.19680         0.87468
C         35.28692        61.27455         1.04532
C         34.09492        60.65912         0.67459
C         38.01321        44.48645        -1.84425
C         37.93482        45.91841        -1.82241
C         36.67077        46.45197        -1.45734
C         38.09705        48.92639        -1.86653
C         36.30770        47.79833        -1.65695
C         37.93533        50.21807        -1.29085
C         36.63935        50.77720        -1.11605
C         37.88604        52.95336        -0.38128
C         36.57819        52.21073        -0.81048
C         37.75713        54.22896         0.35200
C         36.55447        54.88387         0.41295
C         37.70976        56.92056         1.25841
C         36.47039        56.26571         0.86220
C         37.64217        58.34673         1.65540
C         36.44851        59.12972         1.35126
C         37.70391        61.23640         1.60518
C         36.46726        60.53350         1.40160
C         40.29897        40.13705        -1.24712
C         39.98153        41.48017        -1.33248
C         38.97808        42.28817        -1.92003
C         40.44089        44.42463        -2.44684
C         39.15917        43.71357        -1.96649
C         40.41346        45.96178        -2.23063
C         39.15036        46.68357        -1.96739
C         40.47709        48.76116        -1.39524
C         39.24151        48.09127        -1.75199
C         40.42633        50.21092        -1.11178
C         39.14040        50.90025        -0.86760
C         40.33134        52.82645         0.19532
C         39.13093        52.17314        -0.30880
C         40.26831        54.13623         0.73419
C         38.94339        54.74240         1.13793
C         40.18769        56.93607         1.48234
C         38.92426        56.25082         1.27634
C         40.19791        58.38437         1.66878
C         38.93434        59.10660         1.87020
C         40.17168        61.25822         1.80602
C         38.92427        60.58038         1.74907
C         42.46222        36.58247         1.51171
C         42.51345        38.00072         0.97148
C         41.45893        38.45380         0.06934
C         42.78982        40.41062        -0.60784
C         41.50084        39.70045        -0.52977
C         42.96284        41.58665        -1.42631
C         41.91668        42.56839        -1.52440
C         43.01882        44.62239        -2.18916
C         41.81491        43.81242        -2.14294
C         42.96134        45.94301        -1.76278
C         41.72574        46.72068        -1.92781
C         42.89847        48.70635        -0.84414
C         41.69163        48.08920        -1.37465
C         42.85332        50.00274        -0.35295
C         41.68861        50.86514        -0.55991
C         42.75993        52.79643         0.62568
C         41.59133        52.16886         0.13731
C         42.72876        54.16403         0.98493
C         41.45664        54.83153         1.03667
C         42.68473        57.00099         1.26655
C         41.39077        56.23698         1.36818
C         42.62180        58.35281         1.92718
C         41.36532        59.10955         1.77009
C         42.63933        61.23649         1.95712
C         41.38662        60.55536         1.89268
C         44.79694        34.52788         3.71474
C         43.63997        35.04207         3.07555
C         44.96166        36.83079         2.08299
C         43.70338        36.16702         2.27134
C         45.07544        38.00880         1.30605
C         43.86287        38.70681         0.84703
C         45.28654        40.28304        -0.45871
C         43.97346        39.80411        -0.12376
C         45.42564        41.35291        -1.40326
C         44.23929        41.84279        -1.96718
C         45.47896        44.43875        -1.74238
C         44.30948        43.98171        -2.29036
C         45.41850        45.70665        -0.99155
C         44.09553        46.50222        -1.02316
C         45.32563        48.48991        -0.26503
C         44.13491        47.93493        -0.71376
C         45.33070        49.93244         0.10689
C         44.00549        50.56255         0.38162
C         45.28634        52.66881         1.17918
C         43.99880        51.99812         0.83795
C         45.31710        54.18253         1.22822
C         43.95271        54.85565         1.34519
C         45.12261        56.95136         1.92534
C         43.92542        56.21469         1.61266
C         45.15488        58.34609         1.96127
C         43.89541        59.09898         2.11837
C         45.11365        61.22069         1.83837
C         43.87570        60.57071         1.99762
C         46.02348        35.11714         3.51513
C         47.39414        36.87430         2.45290
C         46.14461        36.27342         2.68497
C         47.52905        37.98882         1.60072
C         46.34167        38.57003         1.00785
C         47.78587        40.11056        -0.29519
C         46.44547        39.66343         0.10374
C         47.94057        41.42195        -1.11582
C         46.69464        42.07583        -1.63044
C         47.97644        44.34943        -1.36132
C         46.73741        43.65588        -1.77595
C         47.92617        45.83930        -1.23436
C         46.64986        46.47000        -0.79494
C         47.82966        48.43356         0.13824
C         46.58387        47.77717        -0.35154
C         47.78774        49.80866         0.76591
C         46.53639        50.61501         0.66421
C         47.68526        52.53083         1.95783
C         46.43734        51.94409         1.34782
C         47.67589        54.01680         2.30517
C         46.27270        54.70988         2.30443
C         47.67783        56.95486         2.12254
C         46.36104        56.22258         2.24666
C         47.62005        58.38835         1.78051
C         46.38281        59.07121         1.87744
C         47.55137        61.17901         1.47458
C         46.33453        60.50382         1.75208
C         48.79620        38.57880         1.36923
C         50.18719        40.30343         0.29521
C         48.95157        39.65952         0.49061
C         50.29708        41.56944        -0.32713
C         49.15103        42.21262        -0.89838
C         50.45338        44.34220        -1.01895
C         49.14332        43.63325        -1.08387
C         50.49414        45.84557        -1.06776
C         49.20176        46.62220        -1.03823
C         50.29099        48.54918         0.13907
C         49.14945        47.89692        -0.26565
C         50.23177        49.86545         0.77034
C         49.03988        50.56294         0.92184
C         50.26442        52.56877         2.01185
C         48.99051        51.69547         1.93332
C         50.24445        54.06634         2.19529
C         48.94674        54.81260         2.15580
C         50.11838        56.96979         1.62503
C         48.93497        56.18267         1.93881
C         50.05301        58.34052         1.41429
C         48.81192        59.08264         1.47554
C         49.94412        61.32611         0.89493
C         48.75049        60.50038         1.30413
C         51.53328        42.27968        -0.19213
C         52.84311        44.34522        -0.21511
C         51.64553        43.63211        -0.48662
C         52.92567        45.74836        -0.22070
C         51.74478        46.54378        -0.62455
C         52.75787        48.42164         0.75067
C         51.63693        47.94707        -0.07486
C         52.53257        49.58923         1.49008
C         51.43625        50.43184         1.30161
C         52.81789        52.66974         1.43790
C         51.51983        51.90779         1.49110
C         52.84937        54.13106         1.79838
C         51.53437        54.85912         2.03612
C         52.62052        56.99322         1.04761
C         51.46320        56.32950         1.71638
C         52.49636        58.35591         0.67770
C         51.30832        59.09693         1.16862
C         52.34952        61.18015         0.15043
C         51.25388        60.57566         0.91244
C         54.08159        46.44120         0.19927
C         55.29307        48.51392         0.74219
C         54.05602        47.80250         0.61592
C         55.44493        49.91233         0.91312
C         54.39819        50.70164         1.51816
C         55.25016        52.78848         0.68642
C         54.15570        52.02349         1.24561
C         55.19097        54.16520         0.64596
C         54.04460        54.89857         1.26250
C         54.86303        56.95296         0.10419
C         53.84550        56.31202         0.84327
C         54.60476        58.21166        -0.49474
C         53.48411        59.00493        -0.10192
C         54.46647        61.24966        -0.97380
C         53.41682        60.46119        -0.35387
C         56.51029        50.65150         0.34413
C         57.47615        52.77326        -0.39631
C         56.44537        52.05613         0.25176
C         57.44480        54.17435        -0.50526
C         56.47248        54.93063         0.39165
C         57.20106        57.02098        -1.00720
C         56.21866        56.36668        -0.06471
C         56.76655        58.21246        -1.77014
C         55.47334        58.64423        -1.55277
C         56.59197        61.18290        -2.39757
C         55.34006        60.74124        -1.93491
C         58.37044        54.83510        -1.32026
C         59.05779        56.81654        -2.61324
C         58.27593        56.21609        -1.63721
C         58.86767        58.18038        -3.03169
C         57.68455        58.89455        -2.64431
C         58.62519        60.89548        -3.71327
C         57.57266        60.30024        -2.96199
C         59.83581        58.80598        -3.83953
C         59.70511        60.15720        -4.17824
O         52.03316        47.69937        -1.47046
O         43.73617        50.86939         1.78221
O         37.06571        48.46771        -2.66331
O         50.71409        45.07484        -2.27556
O         51.97000        52.53466         0.21574
O         46.16928        50.76340        -0.77537
O         51.63548        60.06982         2.23574
O         44.31437        42.77687        -3.01132
O         47.59538        53.00642         3.34715
O         54.91169        59.51014        -2.49100
O         48.52726        46.63373        -2.33328
O         37.37136        53.05058        -1.73836
O         48.09175        40.10742        -1.72892
O         53.52382        50.02290         2.37490
O         46.89125        42.74246        -2.89716
O         41.32139        50.98478        -1.98460
O         41.17772        46.63275        -3.29149
O         31.53577        58.87775         0.99628
O         40.87499        42.31776        -0.63360
O         53.89032        54.56271         2.69502
O         38.16830        58.59716         3.01479
O         50.38802        53.14284         3.34118
O         47.04096        56.71861         3.44085
O         43.14298        58.51719         3.27095
O         34.22559        58.71198         2.22469
O         44.49794        45.67708         0.14225
O         42.92154        38.99236         1.95639
O         57.29347        57.25233         0.44534
O         51.69759        55.85068         3.08820
O         47.71838        48.61481         1.61213
O         35.01073        53.72382         1.72641
H         34.58489        54.48709         2.17444
O         42.82887        57.32351        -0.16818
H         42.83918        56.47689        -0.66375
O         45.62485        54.40988         3.54707
H         46.14296        54.83549         4.26399
O         45.88911        54.60027        -0.05092
H         45.40075        54.15416        -0.77484
O         49.74921        61.79894        -0.44855
H         48.85313        62.18866        -0.51257
O         40.32582        44.24612        -3.89309
H         40.84181        44.97512        -4.31025
O         57.12797        54.99945         1.68970
H         57.62403        55.85157         1.70732
O         42.25553        35.66832         0.41613
H         43.11258        35.51738        -0.03251
O         38.73194        54.21691         2.49966
H         37.95818        54.68267         2.88402
O         48.99491        50.94276         3.17338
H         48.87836        51.60320         3.89692
H         29.95400        56.72922        -1.88877
H         29.11815        58.95976        -2.70244
H         31.17233        62.57492        -1.51426
H         29.35168        61.42480        -2.73573
H         31.95384        52.33725        -0.92484
H         30.87630        54.56212        -1.30951
H         33.20591        62.46770        -0.12906
H         34.51243        48.11496        -0.49828
H         33.24474        50.15613        -0.95155
H         35.37350        62.36733         0.94773
H         37.06961        43.95373        -1.64520
H         35.93634        45.76699        -1.00898
H         37.68834        62.33570         1.56375
H         39.60693        39.36707        -1.61826
H         37.97221        41.88418        -2.11708
H         40.18186        62.35840         1.79596
H         41.56561        36.48365         2.17681
H         40.58231        37.80572        -0.07564
H         42.63378        62.33650         1.91982
H         44.70686        33.63812         4.35311
H         42.67795        34.52709         3.20958
H         45.13601        62.31435         1.71864
H         46.92664        34.70362         3.98633
H         48.29137        36.45396         2.93075
H         47.53493        62.27503         1.36624
H         49.67562        38.18284         1.89831
H         51.07742        39.89344         0.79557
H         50.02479        62.21904         1.58361
H         52.39478        41.74984         0.24087
H         53.71609        43.77051         0.12967
H         52.27564        62.25376        -0.07773
H         55.02775        45.88540         0.28374
H         56.18293        47.96816         0.38634
H         54.55855        62.29930        -0.65714
H         57.36306        50.12337        -0.10807
H         58.29308        52.21429        -0.87876
H         56.86861        62.24104        -2.27447
H         59.12916        54.23393        -1.84629
H         59.87426        56.24005        -3.07473
H         58.55984        61.96797        -3.94630
H         60.71703        58.23609        -4.16623
H         60.47801        60.64428        -4.78870
