         210
 CSIRO Nanostructure Databank - Neutral Graphene Oxide Data Set
C         30.42623        31.74231        -0.18040
C         30.51417        32.88744        -0.70025
C         30.50478        35.98955        -1.04696
C         30.50564        37.23296        -1.02540
C         30.53055        40.35682        -0.96798
C         30.40519        41.60040        -0.86029
C         32.78712        29.26263         1.28111
C         31.63289        29.76054         1.02206
C         32.82873        31.60191        -0.00729
C         31.47338        30.95729         0.33804
C         32.87429        32.95512        -0.66622
C         31.62219        33.74685        -0.87428
C         32.86911        35.93767        -0.88573
C         31.64801        35.13686        -0.97305
C         32.88181        37.33556        -0.85373
C         31.63686        38.09944        -0.94639
C         32.92031        40.29152        -1.08121
C         31.62350        39.47450        -0.96752
C         32.81220        41.70291        -0.49713
C         31.55156        42.39101        -0.48331
C         32.73200        44.30235         0.17982
C         31.64091        43.75183        -0.11341
C         35.47887        27.64418         1.59613
C         35.31440        29.00904         1.24899
C         34.08852        29.69634         1.13734
C         35.37219        31.73114         0.27877
C         34.05635        31.20072         0.82160
C         35.39829        33.05279        -0.20256
C         34.16927        33.71066        -0.69256
C         35.39464        35.95091        -0.53769
C         34.15968        35.21408        -0.85739
C         35.36575        37.36833        -0.49237
C         34.12793        38.09112        -0.66519
C         35.32309        40.22957        -0.31036
C         34.12728        39.49757        -0.61525
C         35.29389        41.66090        -0.13463
C         34.02956        42.36824        -0.16706
C         35.24091        44.46540         0.40992
C         34.03403        43.76769         0.17227
C         35.38266        45.85132         0.66780
C         37.84530        27.49209         1.32578
C         36.55178        27.00076         1.62275
C         37.80872        28.89435         0.99353
C         36.58015        29.63451         0.94226
C         37.83733        31.63667         0.22273
C         36.59653        31.01169         0.49691
C         37.90634        33.02885        -0.37618
C         36.61024        33.80126        -0.29970
C         37.91089        35.93389        -0.58790
C         36.60004        35.20033        -0.42784
C         37.82424        37.40308        -0.22166
C         36.59299        38.09530        -0.28935
C         37.76852        40.25336         0.05619
C         36.55504        39.52880        -0.15920
C         37.75486        41.67522         0.17578
C         36.50081        42.37166         0.13063
C         37.73730        44.51314         0.54525
C         36.50341        43.79314         0.35991
C         37.76045        45.92927         0.76679
C         36.45490        46.47938         0.80940
C         40.28281        24.68643         1.45424
C         39.24091        25.38151         1.52690
C         40.30489        27.40193         0.98311
C         39.05571        26.76293         1.29891
C         40.28550        28.81560         0.73555
C         39.05661        29.54211         0.71772
C         40.31138        31.64712         0.35268
C         39.05554        30.94100         0.40386
C         40.31493        33.08858         0.32333
C         39.12249        33.80024         0.08453
C         40.26745        35.95936         0.26616
C         39.10255        35.21289         0.01772
C         40.23783        37.36547         0.21204
C         39.02483        38.09945         0.04793
C         40.19971        40.27611         0.32739
C         39.00807        39.54504         0.16726
C         40.21671        41.69505         0.36368
C         38.97944        42.40074         0.34505
C         40.23083        44.52451         0.66636
C         38.99308        43.82252         0.50795
C         40.24681        45.94859         0.85862
C         38.98288        46.62913         0.90763
C         40.20937        48.69133         1.21207
C         39.15806        48.01518         1.09836
C         42.82294        24.62585         0.93648
C         41.55094        25.22100         1.12096
C         42.75199        27.37167         0.56805
C         41.53653        26.66249         0.90336
C         42.76088        28.79216         0.43474
C         41.52052        29.51292         0.53715
C         42.82151        31.63311         0.70725
C         41.51602        30.92778         0.45334
C         42.76850        33.11525         0.45283
C         41.57671        33.79517         0.45590
C         42.77825        36.01237         0.25256
C         41.54162        35.28627         0.73697
C         42.76971        37.38587         0.10707
C         41.50236        38.08371         0.44439
C         42.71018        40.30431         0.16927
C         41.47934        39.57198         0.48849
C         42.70944        41.68986         0.26936
C         41.46224        42.40404         0.45737
C         42.73033        44.50655         0.77815
C         41.47287        43.80650         0.61874
C         42.73029        45.92191         0.96962
C         41.49133        46.66606         0.99988
C         42.79922        48.66863         1.29019
C         41.49818        48.11027         1.17820
C         43.83637        25.28939         0.60563
C         45.16847        27.35826        -0.01964
C         43.99622        26.66970         0.37316
C         45.17790        28.76368        -0.16451
C         43.98432        29.49836         0.12087
C         45.24844        31.63960        -0.04412
C         44.02230        30.91876         0.13738
C         45.28139        33.06901         0.07314
C         44.07296        33.82142         0.45671
C         45.22716        36.02415        -0.30507
C         44.06495        35.32767         0.26061
C         45.16092        37.41132        -0.52809
C         43.94661        38.10891        -0.26079
C         45.16208        40.39526        -0.53207
C         43.86759        39.58185        -0.35817
C         45.17055        41.71532         0.10139
C         43.97261        42.39073         0.35167
C         45.19300        44.43205         1.05095
C         43.96259        43.78120         0.76212
C         45.19956        45.84369         1.16869
C         44.00681        46.58064         1.11725
C         43.84350        47.98090         1.25554
C         47.49112        27.41328        -0.33990
C         46.44192        26.72186        -0.28647
C         47.73595        28.78828        -0.42237
C         46.40227        29.50342        -0.70029
C         47.70479        31.65353        -0.27151
C         46.46763        30.95704        -0.30255
C         47.70619        33.08630        -0.27738
C         46.46811        33.77632        -0.17947
C         47.73443        35.90629        -0.93103
C         46.42311        35.20687        -0.57684
C         47.68004        37.40765        -1.10912
C         46.37266        38.15906        -1.00135
C         47.68451        40.11069        -0.00463
C         46.47655        39.71151        -0.89897
C         47.71287        41.60086         0.23841
C         46.43874        42.22777         0.66149
C         47.85629        44.25777         1.54570
C         46.43534        43.61950         1.24917
C         47.62266        45.74448         1.41664
C         46.53976        46.32914         1.36641
C         50.22073        28.95550        -0.04061
C         48.92512        29.49336        -0.25248
C         50.18032        31.65623         0.02308
C         48.96183        30.94292        -0.21627
C         50.15852        33.10069        -0.01076
C         48.95340        33.81767        -0.29814
C         50.20287        35.96015        -0.41998
C         48.99402        35.22619        -0.54552
C         50.30915        37.39565        -0.86751
C         48.97857        38.17961        -1.09575
C         49.92083        40.48175        -1.08848
C         48.91432        39.61172        -0.73662
C         50.06853        41.81562        -0.53666
C         48.87755        42.38189         0.07766
C         50.15966        44.28082         0.40229
C         48.91127        43.73307         0.61145
C         51.30337        29.53393         0.20715
C         52.51886        31.79336         0.58773
C         51.42984        30.94289         0.29041
C         52.42818        33.04476         0.60288
C         51.33445        33.87738         0.26994
C         52.42715        36.14878         0.44874
C         51.33019        35.27820         0.13079
C         52.48235        37.35436         0.15129
C         51.59237        38.17007        -0.59711
C         52.73288        40.44953        -0.74284
C         51.85480        39.39453        -1.16635
C         52.47294        41.67214        -0.74962
C         51.33960        42.50167        -0.48843
C         51.25375        43.85487        -0.09394
O         46.87772        37.73013        -2.29305
O         46.25987        42.47555         2.13873
O         49.80651        37.70265        -2.19066
O         46.94760        35.26200        -1.96381
O         41.57056        38.77691         1.74796
O         50.86834        39.96893        -2.00573
O         44.30387        34.68566         1.63858
O         44.25009        40.20081        -1.65360
O         33.00652        31.70214        -1.43808
O         34.35941        34.31739        -2.01625
O         33.85269        31.89001         2.09254
H         34.54933        31.60174         2.71934
O         46.25593        29.50449        -2.16144
H         46.19988        28.56929        -2.45409
O         48.24855        43.91702         2.85812
H         47.49449        44.05984         3.46636
O         38.18940        35.90140        -2.03334
H         38.22245        34.94890        -2.29197
O         43.01290        31.53093         2.17704
H         42.30861        32.06467         2.60421
O         41.56441        35.38496         2.19847
H         42.49257        35.18885         2.47337
O         46.82308        40.22903        -2.19116
H         46.11065        39.97445        -2.81709
O         33.13152        40.48117        -2.51378
H         32.37203        40.99410        -2.86475
O         38.13051        32.85158        -1.83003
H         37.34391        32.39201        -2.19681
O         47.52297        39.41712         1.26689
H         47.58001        40.07242         1.99485
