         314
 CSIRO Nanostructure Databank - Neutral Graphene Oxide Data Set
C         30.72419        57.27280         1.80155
C         30.74247        58.68005         1.68381
C         29.68200        59.47758         2.19583
C         30.84185        61.51960         1.58140
C         29.74687        60.87223         2.14398
C         32.83477        52.85368         1.15005
C         32.84397        54.27280         1.00429
C         31.78890        55.06755         1.48057
C         32.94220        57.14175         0.76234
C         31.80534        56.48626         1.35462
C         32.94654        58.54786         0.60628
C         31.86935        59.32488         1.07005
C         32.99963        61.42688         0.41786
C         31.92234        60.77772         1.00893
C         35.16274        48.48893         0.71196
C         35.12928        49.89258         0.52566
C         33.93677        50.63952         0.80708
C         34.96741        52.69437        -0.06811
C         33.87735        52.03436         0.66554
C         35.04134        54.14435        -0.10470
C         33.97081        54.93128         0.36903
C         35.08930        56.94802        -0.49266
C         34.03260        56.35263         0.26642
C         35.31271        58.42459        -0.45692
C         34.16862        59.22820         0.11004
C         35.40091        61.32859        -0.33353
C         34.04838        60.67273        -0.34684
C         37.73909        44.18641         0.74953
C         37.61770        45.60073         0.64043
C         36.39980        46.32592         0.63738
C         37.56999        48.49078         0.31683
C         36.36204        47.75563         0.55808
C         37.58442        49.89820         0.20106
C         36.34187        50.57545         0.18201
C         37.53050        52.76807        -0.41914
C         36.30286        51.95887        -0.30060
C         37.46769        54.09834        -0.79751
C         36.14776        54.72723        -0.76299
C         37.85094        57.12680        -1.70261
C         35.96518        56.07514        -1.13617
C         37.71538        58.59500        -1.69354
C         36.43037        59.20692        -1.16059
C         37.80369        61.30102        -0.69106
C         36.52643        60.64079        -0.70690
C         40.33555        40.06244         0.04142
C         40.25385        41.43562         0.34576
C         39.04996        42.10819         0.61357
C         40.21994        44.29917         0.87063
C         38.99527        43.53099         0.74521
C         40.06203        45.72968         0.85877
C         38.83908        46.34030         0.56314
C         40.12493        48.57568         0.13753
C         38.81903        47.75761         0.18155
C         40.05079        50.04149         0.23480
C         38.82337        50.66415         0.17024
C         40.04904        52.76206        -0.32765
C         38.76484        52.18129         0.24128
C         40.03341        54.17213        -0.81223
C         38.74563        54.98196        -0.57011
C         40.16023        57.11487        -1.09722
C         38.88581        56.39031        -1.21256
C         40.20770        58.51756        -1.27788
C         39.02550        59.35127        -1.74985
C         40.24221        61.36688        -0.97624
C         38.99731        60.70522        -1.07328
C         42.69216        36.03184        -1.42304
C         42.80476        37.30022        -0.73685
C         41.60194        38.02436        -0.58818
C         42.82890        40.02432         0.03098
C         41.56844        39.37157        -0.18200
C         42.80946        41.49478         0.11665
C         41.48401        42.25146         0.24088
C         42.77511        44.27260         0.78380
C         41.49856        43.64796         0.74175
C         42.98271        45.61674         1.25777
C         41.13155        46.63429         1.18350
C         42.53962        48.67080         0.90814
C         41.30203        47.92388         0.73658
C         42.53282        50.04956         0.77515
C         41.30865        50.78012         0.43358
C         42.45702        53.04712         0.49751
C         41.31801        52.12231         0.12570
C         42.62120        54.23083        -0.43821
C         41.35601        54.91198        -0.91854
C         42.62285        57.06836        -1.00238
C         41.37596        56.39176        -0.98295
C         42.64647        58.48272        -1.15361
C         41.44191        59.20537        -1.23197
C         42.67912        61.37011        -1.09337
C         41.46145        60.67501        -1.16539
C         45.17737        33.45164        -2.42257
C         43.89705        33.93248        -2.22060
C         45.50512        35.95294        -0.77130
C         43.63509        35.02850        -1.33723
C         45.35376        37.33358        -0.58884
C         44.05956        37.93221        -0.36877
C         45.32868        39.93266         0.50203
C         44.03143        39.31927        -0.01211
C         45.29559        41.45924         0.64099
C         44.04367        42.20519         0.42237
C         45.23810        44.37498         0.24643
C         44.00179        43.58680         0.47034
C         45.22839        45.90015         0.32003
C         43.98017        46.47191         0.86048
C         45.16532        48.71036         0.80175
C         43.84525        47.93968         0.79941
C         45.10342        50.15011         1.05381
C         43.78934        50.81309         1.01569
C         45.06701        52.97678         0.58983
C         43.76696        52.33328         0.83301
C         45.11330        54.32462        -0.00331
C         43.87482        55.01660        -0.34873
C         45.13727        56.97740        -1.16844
C         43.86253        56.32750        -0.79855
C         45.19811        58.47195        -1.31217
C         43.91758        59.23088        -1.31681
C         45.14203        61.39017        -1.11377
C         43.93770        60.70780        -1.12174
C         46.40948        34.09440        -2.09339
C         47.88178        36.07987        -1.59033
C         46.57185        35.33055        -1.47482
C         47.79382        37.53839        -1.17060
C         46.57068        38.13403        -0.70286
C         47.77923        40.21413        -0.25359
C         46.56888        39.45737        -0.24910
C         47.83305        41.55668         0.20735
C         46.57506        42.24231         0.57516
C         47.69282        44.43474         0.46328
C         46.52245        43.70325         0.36231
C         47.68010        45.86975         0.71195
C         46.47805        46.61124         0.67402
C         47.59055        48.69649         1.48700
C         46.44429        47.99102         1.02702
C         47.54779        50.16212         1.57826
C         46.28029        50.86843         1.25806
C         47.47711        53.06976         1.02871
C         46.21944        52.29555         0.98567
C         47.58058        54.22696         0.08613
C         46.33369        54.92507        -0.27217
C         47.72922        56.99908        -1.02722
C         46.42520        56.22952        -0.96710
C         47.74525        58.47997        -0.95252
C         46.44782        59.17738        -0.86503
C         47.71897        61.35238        -1.09500
C         46.43129        60.71013        -0.88854
C         48.95794        38.28561        -1.20412
C         50.18976        40.39737        -0.74848
C         48.99553        39.63921        -0.75128
C         50.27631        41.70223        -0.21185
C         49.02922        42.28629         0.25928
C         49.99225        44.36519         1.15208
C         48.92096        43.68770         0.61776
C         50.06712        45.77521         1.26989
C         48.85784        46.53304         1.15938
C         49.96880        48.28341         2.32925
C         48.80616        47.89236         1.63122
C         49.92627        50.50829         2.42708
C         48.69967        50.95043         1.84078
C         50.03024        53.02723         1.21525
C         48.72244        52.39309         1.48897
C         50.02089        54.43624         0.79680
C         48.90349        54.90455        -0.07549
C         50.21326        57.10519        -0.38164
C         49.00040        56.29790        -0.63352
C         50.19919        58.49831        -0.63516
C         48.92817        59.18871        -0.82377
C         50.16524        61.33987        -0.97603
C         48.93794        60.65483        -0.94123
C         51.52452        42.42917        -0.31768
C         52.76716        44.59917         0.38715
C         51.85536        43.52968         0.49739
C         52.61900        45.83175         1.13485
C         51.32694        46.37664         1.52787
C         52.44444        48.30903         2.51907
C         51.24320        47.65619         2.15211
C         52.42021        50.54076         2.66070
C         51.16907        51.15495         2.29265
C         52.48398        53.11543         1.43822
C         51.21130        52.44798         1.63272
C         52.54912        54.38542         0.91571
C         51.33378        55.16398         0.69224
C         52.64256        57.13035        -0.12937
C         51.40668        56.46083        -0.01396
C         52.63432        58.50495        -0.47896
C         51.42429        59.20777        -0.58140
C         52.72914        61.36332        -0.83668
C         51.42348        60.71114        -0.44923
C         53.74437        46.67324         1.29976
C         54.85226        48.78418         2.05964
C         53.69761        47.92780         1.97694
C         54.87371        50.19331         2.15949
C         53.66196        50.99842         2.24316
C         55.05045        53.04686         1.60323
C         53.72575        52.43025         1.87797
C         55.09731        54.27422         0.76023
C         53.81743        54.97884         0.44285
C         55.11231        57.04704         0.08626
C         53.87966        56.42028         0.13563
C         55.18145        58.47220        -0.31876
C         53.91933        59.20065        -0.66602
C         55.20764        61.31569        -0.86955
C         53.92650        60.68343        -0.77250
C         56.13649        50.85222         1.92766
C         57.49830        52.87882         1.35532
C         56.27958        52.21734         1.63303
C         57.58125        54.26034         0.98645
C         56.36372        55.01607         0.71245
C         57.64758        56.99774        -0.06438
C         56.35357        56.34303         0.33046
C         57.66455        58.49945         0.05411
C         56.36220        59.28209         0.18072
C         57.64605        61.27626        -0.51217
C         56.41574        60.65597        -0.52647
C         58.80341        54.93386         0.86167
C         60.05373        57.01880         0.60075
C         58.87621        56.32287         0.50171
C         60.13258        58.51934         0.53035
C         58.81753        59.17306         0.19875
C         60.08560        61.26091        -0.26205
C         58.80172        60.69097         0.27026
C         61.21254        59.09806        -0.34573
C         61.15730        60.45708        -0.64093
O         50.43933        55.33161         1.87082
O         42.13469        42.09219        -1.06025
O         35.30685        52.10090        -1.35935
O         49.88683        49.34977         3.22282
O         54.48432        54.11030        -0.57106
O         48.48361        53.91028        -1.04937
O         48.61550        56.41979        -2.03814
O         42.22450        54.16429        -1.83384
O         44.64494        58.91143        -2.58410
O         56.24756        59.59922         1.54160
O         36.65805        59.07831        -2.59377
O         45.15474        45.23318        -0.96808
O         57.73548        56.79753        -1.58337
O         52.37025        49.35655         3.42738
O         36.71454        56.50850        -2.21382
O         39.57404        48.00619        -1.07367
O         54.43685        53.24602         2.91863
O         51.05429        43.62547         1.66376
O         35.31841        58.90654         0.94509
O         45.97839        41.87672         1.89326
O         45.77128        56.25936        -2.27942
O         47.93292        53.29935         2.40043
O         39.93602        53.07819        -1.76145
O         54.79812        58.63298        -1.72112
O         44.50945        48.36750        -0.46460
O         38.68711        55.20005         0.82144
O         42.03073        46.14238         2.13553
O         43.66241        51.74048         2.16676
O         46.32443        59.90176         0.38415
O         44.52071        35.11408        -0.23850
O         42.01931        53.68410         1.73486
H         42.16819        53.03471         2.46071
O         45.46329        39.37840         1.84209
H         45.94440        40.05441         2.37681
O         57.68379        55.38159        -1.84640
H         56.73086        55.22421        -2.06116
O         48.41322        35.97691        -2.91959
H         47.80333        36.43601        -3.53232
O         60.48829        58.94101         1.89418
H         59.95690        59.75422         2.09951
O         33.58062        60.59385        -1.73879
H         33.56970        61.50167        -2.10790
O         58.60327        61.01894         1.68535
H         57.72164        60.58328         1.91069
O         39.28472        59.61731        -3.15979
H         38.41065        59.76454        -3.58561
O         51.32524        60.95851         1.01683
H         50.51488        60.50797         1.33957
O         38.66893        52.59552         1.62974
H         38.66835        53.60479         1.59668
H         29.85671        56.78336         2.26889
H         28.81470        58.98375         2.65686
H         30.87874        62.61810         1.55347
H         28.92194        61.46709         2.56084
H         31.98710        52.38531         1.67362
H         30.92000        54.58747         1.95548
H         33.01281        62.52807         0.38303
H         34.23203        47.95874         0.96040
H         33.07892        50.10333         1.24035
H         35.48554        62.38311        -0.02676
H         36.82619        43.57158         0.75035
H         35.45012        45.78182         0.74887
H         37.82956        62.33270        -0.30455
H         39.40283        39.48011        -0.01223
H         38.10620        41.54189         0.61430
H         40.26996        62.42994        -0.68972
H         41.84028        35.90810        -2.10906
H         40.65366        37.51896        -0.82525
H         42.66127        62.46517        -0.98326
H         45.27485        32.57063        -3.07630
H         43.06812        33.49864        -2.79976
H         45.14034        62.49045        -1.14699
H         47.30674        33.66342        -2.56501
H         48.63329        35.57480        -0.92152
H         47.74039        62.41483        -1.37900
H         49.88606        37.81680        -1.56334
H         51.10297        39.92916        -1.14678
H         50.14669        62.43631        -1.08140
H         52.23387        42.10132        -1.09343
H         53.63596        44.51323        -0.28347
H         52.73132        62.45652        -0.97211
H         54.71388        46.33448         0.90476
H         55.81314        48.30866         1.80247
H         55.23093        62.41432        -0.96316
H         57.03744        50.21836         1.91123
H         58.43911        52.31330         1.44457
H         57.81104        62.19565        -1.09886
H         59.73812        54.41085         1.11839
H         60.95215        56.49922         0.97185
H         60.14173        62.34689        -0.43176
H         62.09965        58.50629        -0.61481
H         62.01328        60.92672        -1.15046
