         478
 CSIRO Nanostructure Databank - Neutral Graphene Oxide Data Set
C         37.38789        50.10689        -0.29096
C         36.18999        50.80227        -0.41854
C         37.41536        52.87403        -0.58306
C         36.20336        52.19428        -0.56170
C         39.88606        48.64005         0.11866
C         39.88420        50.02542        -0.13277
C         38.63101        50.77297        -0.30465
C         39.91229        52.90726        -0.52696
C         38.64309        52.18761        -0.46256
C         40.00363        54.28489        -0.57117
C         42.32023        48.58597         0.24518
C         41.07776        47.93995         0.28592
C         42.35473        49.99128        -0.00882
C         41.13314        50.68683        -0.22788
C         42.48855        52.88788        -0.45163
C         41.15220        52.11802        -0.58761
C         42.43378        54.33429        -0.22308
C         41.23681        54.98472        -0.39151
C         44.81887        45.65671         0.41673
C         43.65162        46.33090         0.47938
C         44.85097        48.55722         0.55893
C         43.56112        47.81634         0.57152
C         44.87125        49.97126         0.07864
C         43.61062        50.73452         0.00627
C         44.93791        52.84831         0.08159
C         43.68493        52.11584        -0.06086
C         44.94463        54.27447         0.09605
C         43.64713        54.97565         0.43251
C         44.86369        57.12311         0.00302
C         43.73432        56.47105         0.29566
C         47.51568        44.20442         0.33941
C         47.44195        45.63207         0.57693
C         46.14637        46.32339         0.30134
C         47.36663        48.52758         0.81296
C         46.14005        47.81310         0.35201
C         47.36384        50.03028         0.73429
C         46.17280        50.70712         0.14249
C         47.39830        52.87376         0.25509
C         46.16560        52.17555         0.15928
C         47.40226        54.29079         0.12061
C         46.15032        54.97133         0.00761
C         47.41494        57.16338        -0.05504
C         46.13637        56.42420        -0.40754
C         47.43983        58.55929        -0.08969
C         49.88682        44.14993         1.06892
C         48.66865        43.50739         0.46133
C         49.90262        45.65741         0.86819
C         48.61883        46.35282         0.81039
C         49.82695        48.54112         0.85923
C         48.64850        47.80532         0.82802
C         49.81187        49.97730         0.73495
C         48.64915        50.72815         0.63729
C         49.83078        52.90430         0.51822
C         48.64198        52.16946         0.42806
C         49.86626        54.32851         0.40969
C         48.64279        55.01787         0.19493
C         49.86896        57.17001         0.24867
C         48.63494        56.45612         0.12619
C         49.86164        58.59263         0.17562
C         48.63568        59.26229         0.03782
C         52.57568        41.41154         0.89216
C         51.33723        42.12827         1.08311
C         52.32493        44.19586         0.17221
C         51.17608        43.43078         0.72277
C         52.33609        45.67620         0.45456
C         51.08152        46.35434         0.86363
C         52.38738        48.52582         0.67950
C         51.13492        47.83652         1.16821
C         52.38866        49.98375         0.52016
C         51.08310        50.70483         0.51899
C         52.37118        52.89563         0.85345
C         51.07161        52.16772         0.82827
C         52.37520        54.36015         0.66563
C         51.11976        55.05397         0.51547
C         52.33715        57.22549         0.58343
C         51.11116        56.47073         0.42862
C         52.34577        58.61342         0.47205
C         51.11755        59.32614         0.21719
C         52.37096        61.39544        -0.17255
C         51.14351        60.68967        -0.05383
C         55.08735        39.93848         0.05208
C         54.93542        41.34103         0.04305
C         53.67768        42.00983         0.35446
C         54.88187        44.15453         0.38554
C         53.62989        43.44412        -0.13624
C         54.85476        45.66546         0.68848
C         53.61134        46.40415         0.55558
C         54.86790        48.52881         0.64501
C         53.61430        47.82472         0.61328
C         54.87820        49.98330         1.07055
C         53.63004        50.75470         0.73305
C         54.87046        52.89419         0.80295
C         53.63718        52.13186         0.74463
C         54.85106        54.29190         0.83911
C         53.60340        55.02105         0.77837
C         54.92300        57.25887         0.83762
C         53.59152        56.49577         0.90079
C         54.89653        58.67713         0.46797
C         53.60402        59.42743         0.75345
C         54.82183        61.54025        -0.12831
C         53.56143        60.80404         0.13260
C         54.90325        62.97356         0.14664
C         57.34061        40.06702        -0.88011
C         56.27643        39.31360        -0.33174
C         57.10824        41.45498        -0.99636
C         56.04543        42.14194        -0.38392
C         57.36671        44.25187         0.21784
C         56.14970        43.55260        -0.03702
C         57.34447        45.66396         0.61693
C         56.13047        46.38222         0.63389
C         57.33397        48.52453         0.59442
C         56.09344        47.81564         0.61208
C         57.28260        49.97681         0.14212
C         56.10621        50.75606         0.67204
C         57.36974        52.86578         0.61002
C         56.10772        52.13101         0.67737
C         57.38991        54.28832         0.69087
C         56.15213        55.04973         1.09484
C         57.33173        57.16595         0.30483
C         56.16403        56.49954         0.63422
C         57.34238        58.60673         0.15781
C         56.08849        59.31364         0.15958
C         57.37760        61.51373         0.02855
C         56.12078        60.76385        -0.16645
C         57.35164        62.91205         0.01229
C         56.10850        63.61407         0.12012
C         59.93902        37.49737        -1.90892
C         58.72243        38.17017        -1.67814
C         59.88349        40.30114        -1.23424
C         58.63156        39.50197        -1.28408
C         59.93809        41.59193        -0.48323
C         58.92118        42.51972        -0.68745
C         59.75515        44.16929         1.00383
C         58.65720        43.65054         0.10792
C         59.84748        45.68289         0.85381
C         58.57886        46.38502         0.78690
C         59.78404        48.56165         0.95641
C         58.52832        47.81473         0.76247
C         59.86617        49.99773         0.55580
C         58.60008        50.73263         0.27367
C         59.78217        52.87914         1.09579
C         58.57470        52.17524         0.53553
C         59.84515        54.31022         0.62725
C         58.61653        54.97599         0.50253
C         59.88514        57.11914         0.04630
C         58.56272        56.36020        -0.09572
C         59.85758        58.61922         0.13125
C         58.56470        59.35920         0.16916
C         59.79786        61.57142         0.66628
C         58.58596        60.76420         0.20111
C         59.87326        62.93446         0.02134
C         58.61180        63.75438         0.12913
C         59.80781        65.48000        -1.19828
C         58.63710        64.92052        -0.82374
C         62.47503        35.98622        -2.09530
C         62.43190        37.39812        -1.78038
C         61.18772        38.09527        -1.69348
C         62.44985        40.12067        -0.86896
C         61.20783        39.54257        -1.39803
C         62.43372        41.33907        -0.04488
C         61.09704        42.00045         0.31072
C         62.40761        44.16858         0.82502
C         61.10077        43.42042         0.84506
C         62.36536        45.65413         0.76889
C         61.07461        46.33528         0.85953
C         62.27007        48.56973         0.55496
C         61.07703        47.80752         1.01203
C         62.35461        50.03365         0.80577
C         61.10355        50.75890         0.89361
C         62.31274        52.87302         1.22888
C         61.07581        52.12397         0.97330
C         62.35015        54.32709         0.99987
C         61.09878        55.02734         0.68582
C         62.25120        57.21690         1.06135
C         61.10734        56.40111         0.49444
C         62.41614        58.53840         0.25302
C         61.12654        59.32272         0.51338
C         62.36446        61.51541         0.25806
C         61.12017        60.81633         0.62191
C         62.33662        62.80786        -0.22908
C         61.06084        63.51753        -0.35938
C         62.30027        65.57296        -0.99540
C         61.08596        64.88487        -0.85344
C         62.33666        66.98552        -1.24844
C         64.96804        36.01472        -2.27496
C         63.63591        35.32077        -2.28820
C         64.90553        37.39785        -1.65890
C         63.67024        38.07735        -1.55057
C         64.89335        40.12745        -0.82006
C         63.66006        39.44835        -1.06588
C         64.88327        41.51751        -0.40976
C         63.67533        42.13211         0.01523
C         64.86070        44.23937         0.29410
C         63.66435        43.50373         0.36058
C         64.91693        45.69078         0.69535
C         63.54514        46.34132         0.59754
C         64.77117        48.52192         0.22300
C         63.51569        47.78996         0.38127
C         64.84392        49.93324         0.65714
C         63.56907        50.67743         0.81985
C         64.89207        52.86501         0.98100
C         63.64132        52.10334         1.17722
C         64.85254        54.27887         1.04259
C         63.57369        54.97893         1.05972
C         64.87548        57.19849         1.10201
C         63.57745        56.45733         1.19208
C         64.87236        58.65165         0.76441
C         63.64271        59.32044         0.62192
C         64.79205        61.29664        -0.31167
C         63.66690        60.83056         0.59486
C         64.78556        62.72640        -0.74296
C         63.55206        63.50181        -0.59250
C         64.81968        65.58942        -1.01382
C         63.56900        64.87385        -0.87387
C         64.79307        67.03808        -1.15867
C         63.51220        67.68090        -1.28258
C         67.04180        33.16818        -0.69943
C         65.95165        33.91199        -1.24305
C         67.43985        35.87309        -1.63901
C         66.08972        35.20520        -1.66023
C         67.36211        37.33640        -1.25646
C         66.12660        38.04082        -1.31038
C         67.35704        40.13111        -0.81417
C         66.12339        39.44578        -0.98763
C         67.36478        41.63238        -0.90286
C         66.08863        42.25508        -0.39901
C         67.32888        44.38276        -0.07027
C         66.08048        43.62090        -0.06417
C         67.30561        45.81673        -0.14852
C         66.03440        46.42467        -0.05622
C         67.69828        49.02771        -0.44491
C         65.80762        47.80437        -0.34476
C         67.46766        50.05778         0.40970
C         66.15143        50.66396         0.81207
C         67.32822        52.87271         1.02814
C         66.12477        52.16216         0.91258
C         67.33232        54.29431         1.00305
C         66.09439        55.00243         0.97007
C         67.34252        57.11114         0.82206
C         66.13476        56.43449         0.91876
C         67.40468        58.62283         0.91600
C         66.10092        59.30593         0.58310
C         67.34120        61.39916        -0.21865
C         66.10640        60.58300        -0.16854
C         67.34909        62.76802        -0.43171
C         66.11066        63.46777        -0.83851
C         67.30862        65.63482        -0.85964
C         66.06326        64.93549        -0.86404
C         67.30934        67.05988        -1.35392
C         65.98798        67.76971        -1.17116
C         67.18784        69.90139        -1.09121
C         66.01690        69.20042        -1.18330
C         69.35527        31.63825         0.32057
C         69.35112        33.03538         0.19168
C         68.29136        33.74450        -0.47991
C         69.67537        35.79081        -0.57112
C         68.48665        35.14418        -0.82840
C         69.75851        37.23611        -0.63957
C         68.54598        37.99002        -0.87572
C         69.79052        40.10378        -0.39081
C         68.55625        39.41970        -0.70450
C         69.79790        41.52573        -0.18963
C         68.59407        42.28387        -0.31883
C         69.77514        44.43641         0.35484
C         68.55468        43.66651        -0.07925
C         69.99852        45.76066        -0.44222
C         68.56616        46.44939        -0.79960
C         70.03582        48.73186         0.30146
C         68.97196        48.29485        -0.64105
C         69.96258        50.02872         0.85999
C         68.64996        50.66580         1.04664
C         69.86901        52.88695         1.31201
C         68.59404        52.16155         1.30185
C         69.84213        54.30355         1.18195
C         68.58691        54.99825         1.02047
C         69.83673        57.10743         0.74958
C         68.58882        56.40263         0.85229
C         69.84915        58.48933         0.22296
C         68.51289        59.18520         0.00607
C         69.86656        61.48091         0.19278
C         68.55985        60.69824         0.20947
C         69.80693        62.90312        -0.18526
C         68.57192        63.54543        -0.37934
C         69.77379        65.72098        -0.64195
C         68.52679        64.96807        -0.65297
C         69.75131        67.15571        -0.71161
C         68.51713        67.85328        -0.92309
C         69.66921        70.01950        -0.67690
C         68.46532        69.24665        -0.90587
C         69.64861        71.43613        -0.61809
C         71.55319        31.67645         1.39430
C         70.41866        30.96112         0.90926
C         71.61199        33.03500         1.31674
C         70.46934        33.86109         0.79783
C         72.07414        35.76794         0.19514
C         70.88894        34.94755        -0.22583
C         72.09947        37.11327         0.10497
C         70.93939        37.90159        -0.28143
C         72.17655        40.04102         0.11710
C         70.97510        39.34559        -0.20276
C         72.19578        41.40635         0.29190
C         71.01612        42.18966         0.16913
C         72.21290        44.32029         0.59598
C         71.04688        43.61194         0.35172
C         72.19987        45.73286         0.70174
C         71.13377        46.51829         0.28376
C         72.33883        48.60915         1.03736
C         71.20331        47.95334         0.47899
C         72.32387        49.95809         1.35034
C         71.12348        50.71293         1.29286
C         72.27589        52.93374         1.56036
C         71.08214        52.17142         1.44758
C         72.26342        54.31258         1.47612
C         71.06224        55.03703         1.25155
C         72.25509        57.26430         1.14822
C         71.05120        56.46468         1.02304
C         72.29237        58.59412         0.87522
C         71.14810        59.27003         0.24669
C         72.27465        61.46456        -0.22514
C         71.13906        60.75303         0.08027
C         72.24014        62.87536        -0.39163
C         71.04644        63.60049        -0.36667
C         72.20620        65.81140        -0.43078
C         71.00749        65.05007        -0.50287
C         72.17898        67.18713        -0.43655
C         70.95396        67.89757        -0.55760
C         72.09115        70.11577        -0.34284
C         70.91571        69.34478        -0.53112
C         72.04254        71.49806        -0.29338
C         70.81122        72.16330        -0.42951
O         68.45403        51.17973         2.39429
O         70.68271        58.59112        -0.99100
O         65.44819        62.90452        -2.02957
O         62.99736        52.43852         2.44658
O         54.79951        44.61104         1.75252
O         61.88634        43.57118         2.06802
O         46.24928        47.15957        -0.93622
O         58.01860        42.23024        -1.72788
O         64.27640        56.89315         2.42485
O         54.24134        56.96938         2.15762
O         61.69879        41.05085         1.22621
O         45.71396        50.11479        -1.12242
O         60.63213        40.36464        -2.49565
O         68.32327        46.31965        -2.10549
O         60.45682        48.30736         2.23545
O         59.49877        50.28833        -0.83969
O         65.57864        49.99209         1.98231
O         44.19393        48.32971         1.82973
O         51.69812        50.40128        -0.77728
O         66.65801        48.49430        -1.20395
O         51.65613        52.52328         2.12326
O         69.14025        61.15887         1.45344
O         52.03560        45.10718        -0.93760
O         65.22058        60.42115        -1.37312
O         60.07507        57.95309        -1.16709
O         55.42712        61.11511        -1.41587
O         41.97675        52.44579        -1.74937
O         61.21525        59.95091         1.82606
O         47.11724        49.34541         2.00909
O         62.63086        48.16942        -0.80719
O         61.81009        57.54590         2.39416
H         62.60987        57.53245         2.97280
O         59.54804        52.93759         2.55683
H         58.77774        53.52745         2.71260
O         70.58071        45.46144        -1.70896
H         69.87202        45.67078        -2.38279
O         67.45393        66.93591        -2.82776
H         66.69656        66.39951        -3.14774
O         65.33713        36.21880        -3.69537
H         64.68035        36.83700        -4.08196
O         46.10610        56.40228        -1.87727
H         46.89672        55.91027        -2.18454
O         64.04037        61.29166         1.93611
H         63.31743        61.01502         2.54112
O         68.10104        58.93130        -1.34814
H         68.91698        58.85135        -1.89323
O         43.46723        54.70368         1.86837
H         42.67415        55.19652         2.16776
O         69.47556        48.50007        -1.95532
H         69.03082        47.79878        -2.52013
O         56.99796        49.87582        -1.29147
H         57.87197        49.83863        -1.74776
O         67.95166        35.83036        -3.01866
H         67.18918        36.05691        -3.60620
O         53.61795        59.65216         2.20855
H         53.72250        58.75883         2.62130
O         53.76977        43.36789        -1.57473
H         53.20698        44.08402        -1.95558
O         62.59529        58.15578        -1.12620
H         63.05055        58.87921        -1.60766
O         71.27294        34.22670        -1.42857
H         71.31657        34.86909        -2.16741
O         69.52546        44.86654         1.72523
H         69.39670        44.06972         2.28027
O         49.73224        43.98315         2.52438
H         48.85245        44.33960         2.77106
O         58.58948        64.33055         1.47887
H         58.82403        63.59511         2.09489
O         65.29060        45.74057         2.10819
H         64.63584        45.21413         2.61456
O         69.91681        34.59162         1.93718
H         69.64780        33.93427         2.61248
O         67.77355        58.94293         2.28237
H         67.04801        58.65121         2.87334
O         54.91199        49.90799         2.54829
H         54.71625        50.80276         2.90116
O         56.24712        55.13017         2.56491
H         55.49979        55.71157         2.85487
O         59.51147        61.83082         2.08400
H         59.86924        61.05484         2.57993
O         58.36776        56.09918        -1.51669
H         58.81786        56.83242        -2.00082
O         59.31789        43.93714         2.36663
H         60.11846        43.99742         2.93611
O         67.41624        41.92814        -2.34945
H         67.50975        42.90082        -2.44880
O         51.24839        47.91773         2.64350
H         50.44685        47.50335         3.02928
H         37.34674        49.01509        -0.18302
H         35.23625        50.25714        -0.40679
H         37.40708        53.96473        -0.71091
H         35.26035        52.74873        -0.66330
H         38.94345        48.08308         0.19283
H         39.09098        54.89573        -0.60153
H         41.03042        46.86100         0.48721
H         41.18253        56.07690        -0.27332
H         44.79146        44.55623         0.41099
H         42.71552        45.75294         0.51279
H         44.84080        58.22239        -0.03258
H         42.83592        57.05113         0.56258
H         46.61392        43.69640        -0.03218
H         46.51403        59.12946        -0.24012
H         48.69948        42.43459         0.22136
H         48.59619        60.35839         0.00917
H         52.61170        40.35782         1.20476
H         50.50145        41.59397         1.55716
H         52.34977        62.42225        -0.56513
H         50.21951        61.23460        -0.28252
H         54.25279        39.31341         0.40004
H         53.98911        63.52045         0.41772
H         56.37125        38.22362        -0.22667
H         56.14726        64.69770         0.30144
H         59.88151        36.44478        -2.21716
H         57.79346        37.59282        -1.79308
H         59.79792        66.38090        -1.82929
H         57.68467        65.37622        -1.13201
H         61.52834        35.43579        -2.18763
H         61.39174        67.53426        -1.36077
H         63.60735        34.26243        -2.58467
H         63.47104        68.76689        -1.43891
H         66.84784        32.13376        -0.38390
H         64.97529        33.40911        -1.30266
H         67.13933        70.99786        -1.10085
H         65.07459        69.76398        -1.22458
H         68.52218        31.05221        -0.09451
H         68.70089        71.98064        -0.72115
H         72.39269        31.11192         1.82548
H         70.40062        29.86516         0.97774
H         72.48640        33.56610         1.72038
H         72.98590        35.23146         0.49692
H         73.02598        37.63435         0.38258
H         73.12017        39.49145         0.22705
H         73.14986        41.89032         0.53833
H         73.17552        43.80554         0.72547
H         73.11578        46.20692         1.08117
H         73.28392        48.06474         1.16642
H         73.25575        50.42956         1.69201
H         73.23938        52.42286         1.69229
H         73.21876        54.84929         1.55009
H         73.15310        56.79305         1.57152
H         73.18864        59.18353         1.11701
H         73.23966        60.94658        -0.32031
H         73.19251        63.38686        -0.58224
H         73.17321        65.30223        -0.32566
H         73.12793        67.73118        -0.34556
H         73.06419        69.62026        -0.22743
H         72.96506        72.07600        -0.14423
H         70.77274        73.26057        -0.38667
