         618
 CSIRO Nanostructure Databank - Neutral Graphene Oxide Data Set
C         23.09711        69.38352         1.95293
C         23.07604        70.78386         1.83964
C         21.81910        71.44093         1.65968
C         22.95465        73.52702         1.19834
C         21.76405        72.78477         1.36694
C         25.70249        65.20452         1.42353
C         25.64769        66.59539         1.65753
C         24.39922        67.26151         1.89293
C         25.53636        69.43751         2.19852
C         24.30759        68.64845         2.01249
C         25.50182        70.89976         2.10770
C         24.29922        71.57723         1.84019
C         25.37123        73.77935         1.05764
C         24.21344        72.97743         1.44018
C         28.14804        61.09376         0.25796
C         28.10072        62.48912         0.42074
C         26.94753        63.15069         0.85367
C         28.06299        65.36332         0.74806
C         26.89126        64.56830         1.01045
C         28.01388        66.75808         0.98615
C         26.85184        67.35743         1.48704
C         28.05998        69.61487         1.57795
C         26.87764        68.76966         1.89211
C         28.00082        71.02920         1.89330
C         26.77749        71.54271         2.27949
C         27.90255        74.07469         1.09208
C         26.62724        73.62564         1.58152
C         30.54894        57.03826        -1.21625
C         30.58380        58.38248        -0.79182
C         29.37877        59.05974        -0.40213
C         30.60045        61.17998        -0.08996
C         29.34842        60.42170        -0.11077
C         30.59328        62.53477         0.08497
C         29.28588        63.28945        -0.06959
C         30.46875        65.48139         0.25697
C         29.30152        64.73647         0.37228
C         30.46792        66.91628         0.37171
C         29.14022        67.63442         0.49931
C         30.46981        69.75974         1.11841
C         29.20238        69.00016         1.14010
C         30.43375        71.23698         1.21718
C         29.23831        71.93884         1.86245
C         30.29711        74.04699         0.93445
C         29.08099        73.35890         1.26185
C         32.83275        52.83538        -1.79229
C         32.89375        54.19040        -1.99920
C         31.61754        54.98356        -2.18559
C         32.93751        57.08075        -1.68660
C         31.71407        56.39399        -1.65001
C         33.01859        58.43314        -1.23432
C         31.83560        59.05793        -0.75279
C         33.16200        61.22019        -0.41210
C         31.87487        60.42598        -0.21360
C         33.09325        62.68881        -0.39151
C         31.86470        63.29600         0.15247
C         32.94495        65.54868        -0.34484
C         31.79273        64.80647         0.18672
C         32.78666        67.00586        -0.51123
C         31.59184        67.65711         0.07116
C         32.77375        69.95758         0.02974
C         31.65846        69.08479         0.48498
C         32.81817        71.33617         0.55474
C         31.57258        71.96790         0.92378
C         32.75182        74.13972         0.62160
C         31.53823        73.42335         0.88820
C         35.11842        48.48577        -1.05386
C         35.22050        49.93779        -1.10553
C         34.05253        50.62778        -1.39537
C         35.39378        52.76059        -1.83031
C         34.04270        52.01586        -1.83716
C         35.35309        54.23044        -1.77809
C         34.14861        54.89466        -2.00393
C         35.42003        57.07435        -1.96228
C         34.13183        56.37395        -2.29637
C         35.40035        58.56328        -2.15566
C         34.23318        59.20045        -1.40427
C         35.43092        61.38015        -1.37133
C         34.29319        60.56717        -1.10190
C         35.41331        62.78462        -1.19138
C         34.18271        63.45721        -0.77123
C         35.28882        65.71298        -1.15477
C         34.10386        64.90999        -0.74003
C         35.33761        67.13992        -0.77797
C         34.05574        67.83370        -0.75733
C         35.29755        69.95478        -0.10538
C         34.03493        69.30494        -0.48485
C         35.24640        71.27053         0.39726
C         34.01477        72.04740         0.51339
C         35.17675        74.29342         0.13508
C         33.98414        73.51320         0.51735
C         37.67881        44.36136        -0.08779
C         37.60744        45.77534        -0.08850
C         36.35331        46.32567        -0.48179
C         37.80987        48.79800        -0.04377
C         35.99002        47.68545        -0.33099
C         37.74726        50.00904        -0.70178
C         36.50264        50.66854        -1.02414
C         37.82434        52.77763        -1.28251
C         36.58146        52.03659        -1.35548
C         37.79832        54.23420        -1.37906
C         36.58171        54.93863        -1.55932
C         37.81403        57.09084        -1.37055
C         36.58314        56.38191        -1.63321
C         37.80868        58.54317        -1.41892
C         36.69399        59.24669        -1.78855
C         37.90306        61.45950        -1.46788
C         36.67805        60.74804        -1.97018
C         37.87229        62.82715        -1.33667
C         36.62267        63.52714        -1.32608
C         37.90511        65.79795        -1.31942
C         36.60170        64.99613        -1.39139
C         37.80286        67.16627        -0.65652
C         36.55014        67.83194        -0.53503
C         37.74669        69.89283         0.19036
C         36.51985        69.22862        -0.13454
C         37.70131        71.23720         0.68401
C         36.45563        71.78970         0.91662
C         37.75246        74.26249         0.10528
C         36.41451        73.94167         0.59379
C         40.03597        40.08565         0.46849
C         40.03781        41.49649         0.47861
C         38.86572        42.23192         0.20645
C         40.09220        44.37465         0.36981
C         38.86074        43.64469         0.17391
C         40.09053        45.78983         0.29510
C         38.85433        46.52514         0.11668
C         40.21514        48.59759        -0.18263
C         38.94834        47.92480        -0.03834
C         40.25541        49.95021        -0.60031
C         39.03762        50.58834        -1.22543
C         40.30494        52.76968        -1.14664
C         39.04672        52.09850        -1.14694
C         40.31059        54.23708        -1.51348
C         39.01168        54.96172        -1.25352
C         40.25955        57.10740        -0.70454
C         39.00970        56.37128        -1.16865
C         40.39478        58.49202        -1.35392
C         39.09134        59.25158        -1.13494
C         40.49778        61.35570        -1.57168
C         39.14514        60.72977        -1.19689
C         40.46151        62.93430        -1.46034
C         39.13255        63.53055        -0.97401
C         40.35083        65.78730        -0.70210
C         39.08845        65.00787        -0.77919
C         40.29892        67.13113        -0.46474
C         39.01419        67.84070        -0.35799
C         40.20778        69.86967         0.52213
C         38.97514        69.18314         0.08782
C         40.19580        71.37055         0.88802
C         38.88785        72.14549         1.03319
C         40.14929        73.98467        -0.36962
C         38.85980        73.47749         0.26519
C         42.39039        35.91986         0.38929
C         42.39976        37.11824         1.29211
C         41.18329        37.94570         0.92505
C         42.34783        40.09642         1.34092
C         41.17469        39.33198         0.86249
C         42.45514        41.53086         1.05570
C         41.27739        42.22244         0.70612
C         42.53900        44.33642         0.73728
C         41.29643        43.64432         0.60007
C         42.52975        45.76227         0.67972
C         41.34366        46.48687         0.43781
C         42.62091        48.63105         0.12644
C         41.39882        47.91460         0.18351
C         42.67642        49.95549        -0.33159
C         41.48059        50.64132        -0.65765
C         42.78539        52.75491        -0.93649
C         41.50898        52.07090        -0.96613
C         42.80155        54.21911        -1.15468
C         41.54042        54.97701        -1.06105
C         42.77266        57.06525        -0.58365
C         41.54850        56.33042        -0.85633
C         42.73142        58.49958        -0.39319
C         41.57754        59.24346        -0.76059
C         42.68146        61.37857        -0.26594
C         41.59528        60.66809        -0.76821
C         42.69255        62.82540        -0.25210
C         41.61634        63.55564        -0.71178
C         42.61626        65.62478         0.29183
C         41.68979        65.06921        -0.79338
C         42.74880        67.11605         0.17688
C         41.60102        67.91172        -0.41788
C         42.64327        69.95419         0.59390
C         41.50250        69.27541         0.21742
C         42.65534        71.37878         0.81708
C         41.45962        72.09801         0.71240
C         42.62070        74.13512        -0.00591
C         41.44784        73.45410         0.21635
C         44.67084        33.47611        -1.27408
C         43.50027        34.07910        -0.83194
C         44.81074        36.00592        -0.09306
C         43.54416        35.35700        -0.19009
C         44.86888        37.43865         0.33438
C         43.66454        37.91291         1.09026
C         44.95547        40.04920         1.33923
C         43.69896        39.28904         1.47681
C         44.95376        41.41133         1.19962
C         43.72080        42.20264         1.08710
C         45.06731        44.31082         0.64080
C         43.75236        43.59757         0.89207
C         45.05856        45.78334         0.97340
C         43.77935        46.49314         0.96753
C         45.13509        48.63483         0.47868
C         43.82843        47.99270         0.66505
C         45.19469        49.96916         0.01808
C         44.00562        50.57853        -0.68895
C         45.23781        52.79555        -0.51311
C         43.98274        52.09081        -0.68060
C         45.27569        54.20790        -0.48129
C         44.08266        54.97417        -0.85872
C         45.19681        57.06630        -0.09093
C         44.00157        56.39557        -0.48549
C         45.13250        58.48384         0.16079
C         43.91214        59.18067         0.00504
C         45.14976        61.36090         0.21987
C         43.82934        60.64182         0.38442
C         45.16120        62.78262         0.20007
C         43.92598        63.52066         0.14997
C         45.14971        65.61302         0.59729
C         43.93705        64.89787         0.32446
C         45.14449        67.01951         0.75348
C         43.90198        67.74426         0.55993
C         45.20222        69.93359         0.90195
C         43.89292        69.19966         0.80889
C         45.20602        71.39293         0.67811
C         43.93456        72.10454         0.88460
C         45.19142        74.17434        -0.05085
C         43.92021        73.61813         0.43741
C         45.91540        34.09983        -1.11221
C         47.26472        36.06975        -0.35706
C         45.99856        35.38155        -0.51931
C         47.38213        37.24506         0.35780
C         46.15877        37.74895         1.12704
C         47.53659        39.93111         1.41368
C         46.21666        39.24519         1.43661
C         47.55633        41.41114         1.20579
C         46.25774        42.12121         1.08203
C         47.55166        44.30478         1.39537
C         46.23998        43.59387         1.29216
C         47.53195        45.72712         0.94495
C         46.24928        46.49124         1.03763
C         47.56972        48.63408         0.88667
C         46.28868        47.91259         0.84272
C         47.62240        49.99272         0.34420
C         46.44660        50.65434        -0.04088
C         47.67259        52.80554        -0.16564
C         46.46538        52.08563        -0.30131
C         47.68925        54.21849        -0.05889
C         46.46042        54.92421        -0.17950
C         47.66168        57.02163         0.27561
C         46.43493        56.35417        -0.01784
C         47.59560        58.44754         0.65782
C         46.33717        59.20230         0.44385
C         47.63721        61.29079         0.18240
C         46.33970        60.61296         0.37350
C         47.64877        62.82500         0.06102
C         46.37899        63.52010         0.29127
C         47.62314        65.61204         0.83971
C         46.39259        64.89941         0.58680
C         47.62072        67.00233         0.91191
C         46.38425        67.73401         0.84237
C         47.64575        69.84331         0.50336
C         46.43236        69.14736         0.75174
C         47.57700        71.24161         0.02769
C         46.35428        72.03993         0.28891
C         47.65987        74.09642        -0.31811
C         46.37421        73.46343        -0.01342
C         48.63562        37.93287         0.44795
C         49.96938        39.97964         0.88286
C         48.76185        39.22980         0.94304
C         50.05289        41.35989         1.15316
C         48.82996        42.09995         1.67448
C         50.05036        44.23841         1.16741
C         48.84544        43.57903         1.35643
C         50.11226        45.67445         1.02417
C         48.84464        46.41085         0.83343
C         50.15901        48.55267         0.71817
C         48.87270        47.88552         0.98431
C         50.18498        49.92669         0.46656
C         48.92660        50.58705         0.07125
C         50.20875        52.80215         0.09660
C         48.95376        52.09006        -0.18035
C         50.16421        54.21656         0.11802
C         48.93751        54.92426         0.08515
C         50.16467        57.07293         0.44255
C         48.90196        56.35277         0.26501
C         50.17722        58.47701         0.63065
C         48.89407        59.18018         0.85547
C         50.16606        61.29608         0.28278
C         48.88449        60.70632         0.83588
C         50.16805        62.80803         0.12370
C         48.90316        63.50690         0.32189
C         50.21520        65.57622         0.98655
C         48.88945        64.84410         0.89440
C         50.19736        67.06509         1.10527
C         48.87081        67.78997         1.06953
C         50.12280        69.91332         0.44901
C         48.87643        69.20258         0.63177
C         50.13557        71.25540         0.06463
C         48.87940        71.95346        -0.25137
C         50.14048        74.11779        -0.77091
C         48.85099        73.43522        -0.34974
C         51.25569        42.07703         1.01883
C         52.51874        44.20769         0.98695
C         51.30899        43.49614         1.09083
C         52.57273        45.62828         0.94286
C         51.31956        46.36009         0.94532
C         52.58339        48.51045         0.79912
C         51.35417        47.80530         0.80673
C         52.60317        49.92123         0.77899
C         51.41241        50.64417         0.50462
C         52.63157        52.80300         0.56932
C         51.40659        52.08381         0.33737
C         52.66373        54.21111         0.46799
C         51.46176        54.95173        -0.06174
C         52.62752        57.07756         0.52200
C         51.40338        56.38977         0.37246
C         52.64159        58.49401         0.63452
C         51.40220        59.19152         0.66404
C         52.63099        61.33938         0.59410
C         51.43494        60.62601         0.60188
C         52.61720        62.78654         0.43692
C         51.45406        63.49582         0.30622
C         52.68971        65.67570         0.58922
C         51.39714        64.99966         0.21779
C         52.68315        67.09854         0.75730
C         51.43322        67.81912         0.79341
C         52.61470        69.97671         0.83891
C         51.37548        69.19935         0.65854
C         52.59922        71.47243         0.57890
C         51.44217        71.93558        -0.31170
C         52.55908        74.15871        -0.08004
C         51.40987        73.45314        -0.27980
C         53.78160        46.34290         0.80297
C         55.02093        48.47413         0.51016
C         53.83090        47.76037         0.74555
C         55.12767        49.89128         0.63780
C         53.88393        50.60671         1.21775
C         54.90902        52.87414         1.34601
C         53.80960        52.11280         1.00208
C         55.07161        54.25540         1.02014
C         53.85981        54.93483         0.66963
C         55.10200        57.04981         0.67281
C         53.87649        56.36266         0.58192
C         55.11184        58.48679         0.67501
C         53.88085        59.20326         0.67958
C         55.11197        61.32708         0.83695
C         53.89200        60.63298         0.72443
C         55.03092        62.81285         1.15514
C         53.94687        63.48329         0.30010
C         55.12885        65.66424         0.60345
C         53.87740        64.96836         0.58058
C         55.13298        67.09685         0.59737
C         53.92002        67.78693         0.75582
C         55.18609        69.99089         0.69880
C         53.93004        69.24633         0.95321
C         55.15724        71.36519         0.60468
C         53.92521        72.03354         0.04634
C         55.04804        74.23987         0.09296
C         53.87155        73.54174         0.10354
C         56.36288        50.48740         0.35859
C         57.59115        52.76749         0.35762
C         56.74387        51.80378         0.81660
C         57.65205        54.13284         1.06506
C         56.33087        54.91106         0.93841
C         57.56856        57.04653         0.60395
C         56.34394        56.31817         0.73274
C         57.57494        58.46859         0.56396
C         56.34202        59.19593         0.66868
C         57.60288        61.31674         0.70028
C         56.35031        60.62623         0.76433
C         57.65347        62.77708         0.85160
C         56.36159        63.54456         1.01674
C         57.54324        65.60692         0.01488
C         56.33969        64.95214         0.61749
C         57.58938        67.09427         0.25335
C         56.38640        67.81501         0.47317
C         57.59720        69.92341         0.12421
C         56.39537        69.23096         0.46407
C         57.58513        71.33810        -0.03185
C         56.27367        72.05604        -0.10942
C         57.52277        74.21192         0.04757
C         56.33455        73.55268         0.07594
C         58.82950        54.93385         0.57950
C         60.01864        57.05514         0.24143
C         58.81870        56.32039         0.47675
C         60.03484        58.46460         0.22886
C         58.79993        59.18657         0.41550
C         60.05038        61.32897         0.28221
C         58.80880        60.61270         0.45462
C         60.08732        62.75557         0.27298
C         58.87024        63.51016         0.42341
C         60.05512        65.61693        -0.01361
C         58.84945        64.88664         0.22897
C         60.03587        67.03360        -0.12155
C         58.80565        67.77128         0.06107
C         60.02359        69.90218        -0.29404
C         58.81727        69.19882        -0.00758
C         60.00572        71.31170        -0.32885
C         58.79557        72.02811        -0.14716
C         60.05659        74.20162        -0.33049
C         58.84140        73.49847         0.20440
C         61.23766        59.19091         0.03704
C         62.46866        61.32573        -0.20907
C         61.25928        60.60156         0.04772
C         62.50158        62.70856        -0.22115
C         61.30411        63.44338         0.04176
C         62.50558        65.57292        -0.21153
C         61.30780        64.89248        -0.03956
C         62.47629        66.98960        -0.59352
C         61.23645        67.76173        -0.38685
C         62.50625        69.89566        -0.58082
C         61.25538        69.16194        -0.47510
C         62.50553        71.31698        -0.59816
C         61.21229        72.03876        -0.83867
C         62.47586        74.18826        -0.69744
C         61.23442        73.51627        -0.56421
C         63.77231        63.45074        -0.61061
C         65.04381        65.65358        -0.22061
C         63.80326        64.84438         0.05290
C         65.04907        67.01469        -0.42490
C         63.78344        67.74065        -0.71493
C         64.96497        69.91474        -0.49410
C         63.74727        69.20649        -0.57833
C         64.94254        71.32549        -0.43291
C         63.71563        72.03370        -0.53416
C         64.91025        74.20028        -0.81767
C         63.71319        73.49660        -0.67486
C         66.25063        67.78886        -0.41649
C         67.45117        69.92069        -0.50431
C         66.23825        69.19057        -0.46900
C         67.48144        71.32919        -0.49283
C         66.21290        72.04878        -0.27569
C         67.46398        74.18119        -0.96594
C         66.20406        73.59448        -0.53247
C         68.66449        72.06821        -0.65632
C         68.63676        73.45930        -0.91145
O         35.76711        65.44574        -2.52941
O         48.13656        45.92578        -0.38828
O         36.39028        72.98752         1.62866
O         47.06667        41.77752        -0.11562
O         40.74927        60.99181        -2.91269
O         42.85944        39.65901         2.62332
O         26.74412        72.85533         2.76182
O         48.17049        58.67374         2.03107
O         46.96222        39.49598         2.69027
O         48.08609        71.34344        -1.35310
O         63.10984        67.23898        -1.92032
O         39.11287        60.03015         0.11865
O         33.15727        67.46131        -1.85451
O         53.21592        69.68502         2.16147
O         49.03633        51.14097        -1.29546
O         43.97289        73.19394         1.83368
O         57.21133        63.26833         2.19896
O         61.06964        71.95830        -2.39030
O         47.70361        61.91439        -1.10835
O         55.70725        71.90398        -1.53015
O         32.82197        60.61252         0.88656
O         44.46586        69.53693         2.11969
O         55.97433        52.19281         1.96158
O         49.73704        64.89016         2.14935
O         26.41044        68.95310         3.27008
O         32.08145        64.03521         1.41005
O         43.63774        47.49157         2.03073
O         33.12261        69.98992        -1.39656
O         54.20810        71.72168        -1.38577
O         49.57857        67.54392         2.33763
O         50.15528        61.87029        -1.03687
O         36.70002        48.36897         0.68259
O         66.24342        72.98743         0.81728
O         48.25932        48.40930         2.20870
O         38.98857        64.10371         0.37279
O         34.83668        52.21980        -3.07091
O         43.66669        54.68010        -2.24712
O         40.21151        70.34844         1.92800
O         46.69048        44.07367         2.58090
O         31.53717        69.14980         1.96048
O         39.13766        50.27028        -2.65722
H         38.48440        50.82877        -3.13040
O         48.83135        41.96375         3.12256
H         49.62569        42.41822         3.47213
O         38.29339        66.07872        -2.69417
H         37.45831        66.20133        -3.20385
O         54.36932        63.31352        -1.08611
H         53.58217        63.38178        -1.66553
O         30.49799        54.29843        -1.62210
H         30.61002        54.27198        -0.64998
O         52.38430        72.11276         1.85691
H         52.79191        71.53259         2.54216
O         44.21445        50.19683        -2.10231
H         44.93789        50.75592        -2.45881
O         48.84259        61.15247         2.21580
H         48.45369        60.41602         2.74660
O         42.32353        36.69526         2.69614
H         42.38162        37.51132         3.24117
O         50.19701        74.01208        -2.21745
H         49.29679        74.16372        -2.57423
O         44.96085        38.26506        -0.87133
H         44.29576        37.94303        -1.51575
O         40.62529        58.34411        -2.76213
H         40.72827        59.29077        -3.10531
O         28.77870        67.93147        -0.90875
H         28.75887        67.07803        -1.39406
O         42.26866        65.38490        -2.09189
H         41.76115        64.82071        -2.73979
O         38.81157        72.50549         2.42929
H         39.07287        71.70878         2.94284
O         43.52921        60.65585         1.83190
H         44.20685        60.10471         2.27845
O         42.00102        68.13627        -1.81035
H         42.12516        67.23435        -2.21013
O         29.61840        72.15663         3.25324
H         28.83648        72.54700         3.70198
O         63.83684        63.56958        -2.03255
H         63.10949        64.15461        -2.33099
O         59.07354        73.50269         1.67177
H         59.93099        73.05554         1.83808
O         53.95353        50.38584         2.65927
H         54.77799        50.82657         2.96644
O         40.40922        54.23498        -2.98587
H         40.62926        55.14750        -3.27446
O         36.62322        61.03071        -3.40343
H         36.01436        60.36443        -3.80993
O         63.84082        64.55251         1.48908
H         63.86902        65.40325         1.97474
O         59.87908        72.67624        -2.74590
H         59.19778        71.96563        -2.83825
O         40.09985        57.31324         0.72644
H         39.59320        58.14290         0.87601
O         46.10077        37.03026         2.36711
H         46.61763        37.55108         3.02429
O         41.93662        65.37443         1.55582
H         42.50410        65.70328         2.28411
O         29.09873        63.39782        -1.53480
H         28.85698        62.50523        -1.86452
O         51.66692        55.00569        -1.53109
H         50.85253        55.38236        -1.92795
O         40.13309        73.63540        -1.77445
H         40.20009        72.66182        -1.85635
O         33.92833        56.46607        -3.77542
H         34.56005        55.84084        -4.19340
O         57.33094        65.47162        -1.45761
H         56.50308        65.95083        -1.67799
O         40.58596        63.43884        -2.81891
H         40.73367        62.59566        -3.35922
O         35.15405        58.82647        -3.58634
H         34.54608        58.10963        -3.91321
O         54.60937        62.92451         2.53064
H         55.42209        62.85888         3.08236
O         57.90919        53.92450         2.48549
H         57.22302        53.29117         2.80347
O         51.11079        65.36094        -1.17113
H         51.85315        65.05332        -1.73224
O         45.27133        44.22258        -0.80421
H         46.15646        44.59139        -1.01830
O         51.69348        71.52701        -1.67753
H         51.20095        72.14756        -2.26324
H         22.88644        74.57367         0.86873
H         25.22374        74.50111         0.23977
H         27.95742        75.03998         0.56212
H         30.23401        75.12491         0.71785
H         32.69472        75.23429         0.52511
H         35.04581        75.12672        -0.57188
H         37.85907        75.18380        -0.49248
H         40.15568        75.10243        -0.33302
H         42.60209        75.07769        -0.57417
H         45.18996        75.20244        -0.44572
H         47.65010        75.18776        -0.47363
H         50.12107        75.20635        -0.47888
H         52.52633        75.25997        -0.13275
H         55.04383        75.34120         0.08179
H         57.53692        75.31194         0.10411
H         60.09410        75.29851        -0.22730
H         62.48795        75.28885        -0.68222
H         64.87806        75.25728        -1.12304
H         67.45736        75.20122        -1.37624
H         22.14225        68.83742         1.91553
H         20.89786        70.84380         1.71823
H         20.79479        73.27812         1.21030
H         24.79496        64.59938         1.56707
H         23.47520        66.66699         1.83304
H         27.24145        60.49745         0.44165
H         26.05735        62.55729         1.11345
H         29.59492        56.49181        -1.23029
H         28.44015        58.48622        -0.38942
H         31.85686        52.34995        -1.64037
H         31.42478        55.05184        -3.29219
H         34.36791        48.01574        -1.70712
H         33.08884        50.10057        -1.32789
H         36.75533        43.79329        -0.27796
H         35.63942        45.64291        -0.96860
H         39.10892        39.55271         0.21057
H         37.92477        41.69124         0.02473
H         41.42538        35.41589         0.22247
H         40.27473        37.40191         0.62356
H         44.62304        32.48535        -1.74775
H         42.53610        33.56074        -0.93064
H         46.83152        33.59736        -1.45317
H         48.15700        35.63221        -0.83134
H         49.51909        37.44669         0.00391
H         50.87892        39.46394         0.53523
H         52.18066        41.52759         0.78373
H         53.46055        43.64174         0.92079
H         54.72532        45.77965         0.73865
H         55.93695        47.90692         0.28002
H         57.12446        49.87187        -0.14786
H         58.20855        52.59386        -0.53497
H         59.78897        54.40279         0.48098
H         60.96324        56.50482         0.11775
H         62.17417        58.63951        -0.13366
H         63.38668        60.75697        -0.42046
H         64.66834        62.86771        -0.28395
H         66.00367        65.14616        -0.03464
H         67.21493        67.26592        -0.32975
H         68.40122        69.36719        -0.54894
H         69.62031        71.53106        -0.73487
H         69.58010        73.95549        -1.18166
