         344
 CSIRO Nanostructure Databank - Neutral Graphene Oxide Data Set
C          1.39429         3.40446         1.00010
C          0.18954         4.08334         1.05887
C          1.32834         6.24672         0.91087
C          0.15045         5.48721         1.00497
C          1.30444         7.69125         0.90089
C          0.14401         8.44633         0.76494
C          1.37676        10.58633         0.88982
C          0.16986         9.84746         0.81542
C          1.37967        12.05176         0.78744
C          0.20784        12.75871         0.45344
C          1.38895        14.88648         0.52238
C          0.21729        14.14040         0.30569
C          1.34002        16.35250         0.32339
C          0.21582        17.06928         0.72654
C          1.31025        19.22022         0.34230
C          0.17768        18.47913         0.66426
C          1.32503        20.69151         0.32765
C          0.11217        21.43464         0.39212
C          1.26872        23.58245         0.43744
C          0.10399        22.84371         0.41383
C          1.32855        25.08046         0.67623
C          0.02418        25.83057         0.54848
C          1.16082        27.91854        -0.03842
C         -0.01193        27.17241         0.34049
C          1.21495        29.31377        -0.09780
C          3.84794         3.44153         0.71986
C          2.61892         4.11939         0.86801
C          3.81149         6.25689         0.66903
C          2.59372         5.55408         0.83604
C          3.78473         7.75501         0.50504
C          2.59275         8.40020         1.24785
C          3.84960        10.59181         0.88927
C          2.59441         9.89295         0.98853
C          3.89933        12.07111         1.27121
C          2.57480        12.77990         1.00109
C          3.86572        14.87336         1.19840
C          2.55988        14.18548         0.92092
C          3.62536        16.44298        -0.67856
C          2.46982        17.09090        -0.16393
C          3.72750        19.20392        -0.20747
C          2.51857        18.51410         0.01592
C          3.85556        20.67855         0.07230
C          2.52999        21.38145         0.22067
C          3.57796        23.57093        -0.55408
C          2.59616        22.87096         0.40231
C          3.61263        25.05210        -0.44422
C          2.44650        25.72474        -0.13347
C          3.63128        27.90137        -0.80937
C          2.32208        27.13832        -0.47776
C          3.64349        29.34961        -0.55757
C          2.41168        30.01025        -0.33685
C          6.27050         3.45464         0.25667
C          5.04591         4.14315         0.50266
C          6.25472         6.31037         0.22701
C          5.02685         5.58073         0.48726
C          6.29493         7.72684         0.29658
C          5.10207         8.42388         0.90446
C          6.34893        10.64119         0.72576
C          5.03073         9.90984         0.67023
C          6.23012        12.08350         0.29065
C          5.06295        12.80714         0.62102
C          6.16123        14.92211        -0.00431
C          5.04825        14.21295         0.53676
C          6.13827        16.34565        -0.39641
C          4.89669        17.06218        -0.57243
C          6.13929        19.16848        -0.80968
C          4.91305        18.49219        -0.50597
C          6.06979        20.61107        -1.15064
C          4.70270        21.28552        -1.06046
C          6.07734        23.56405        -1.06772
C          4.77550        22.82803        -1.07631
C          6.07278        24.97972        -0.89657
C          4.83901        25.72966        -0.78809
C          6.10677        27.84701        -0.69291
C          4.87803        27.13803        -0.76105
C          6.10743        29.27896        -0.58799
C          4.88641        29.99806        -0.49960
C          8.66140         3.44350        -0.29818
C          7.43724         4.14052        -0.07894
C          8.59802         6.30511        -0.46314
C          7.42913         5.59471        -0.12251
C          8.62908         7.71191        -0.41237
C          7.47352         8.43510         0.01447
C          8.57046        10.57476        -0.46368
C          7.51022         9.90196         0.06914
C          8.58108        12.07134        -0.65063
C          7.35935        12.78075        -0.13536
C          8.62727        14.88415        -0.38292
C          7.35953        14.19257        -0.22036
C          8.64723        16.38560        -0.21463
C          7.33260        17.05466        -0.52540
C          8.61962        19.16416        -0.97144
C          7.34633        18.46029        -0.83663
C          8.67194        20.63711        -1.34605
C          7.33976        21.39282        -1.28608
C          8.51247        23.54193        -0.74246
C          7.30942        22.86316        -1.03242
C          8.52937        24.95531        -0.65404
C          7.31152        25.68529        -0.78535
C          8.55636        27.82720        -0.53302
C          7.32958        27.11961        -0.67303
C          8.55310        29.24901        -0.44080
C          7.35516        29.94901        -0.47892
C         11.06373         3.44518        -0.77630
C          9.83682         4.11115        -0.65464
C         11.07566         6.29531        -0.91143
C          9.76572         5.56475        -1.05793
C         11.04215         7.73424        -0.91475
C          9.85444         8.41409        -0.74096
C         11.09363        10.62753        -0.72805
C          9.79237         9.88732        -1.04704
C         11.10315        12.01077        -0.51710
C          9.84298        12.72275        -0.08830
C         11.09426        14.93008        -0.45430
C          9.82425        14.21219        -0.36154
C         11.09949        16.29674        -0.66568
C          9.80174        16.98656        -1.00413
C         11.08935        19.20582        -0.78617
C          9.81855        18.49314        -0.88399
C         11.02760        20.66478        -0.65635
C          9.84423        21.33929        -0.71426
C         11.00596        23.51903        -0.23986
C          9.70589        22.76161        -0.23092
C         10.98475        24.96263        -0.20977
C          9.76902        25.67390        -0.43988
C         11.03685        27.79211        -0.46381
C          9.79179        27.09399        -0.45882
C         11.10075        29.24434        -0.42860
C          9.82726        30.02238        -0.17782
C         13.48866         3.44097        -1.01307
C         12.28477         4.14254        -0.99518
C         13.52943         6.32634        -1.04317
C         12.27477         5.60612        -1.03503
C         13.56087         7.70754        -1.00913
C         12.29475         8.48067        -1.30914
C         13.54664        10.58275        -0.68904
C         12.31604         9.91763        -0.84617
C         13.57119        12.01084        -0.57126
C         12.33016        12.74659        -0.53713
C         13.57110        14.90750        -0.65550
C         12.32245        14.16516        -0.51573
C         13.58386        16.37388        -0.43007
C         12.35981        17.06072        -0.98895
C         13.62293        19.22297        -0.55249
C         12.27782        18.52367        -0.62433
C         13.50291        20.66538        -0.14373
C         12.32642        21.42343        -0.70261
C         13.44074        23.50753         0.07667
C         12.21080        22.83468        -0.19623
C         13.43818        24.98097         0.37433
C         12.20030        25.67024        -0.12245
C         13.52601        27.70027        -0.63888
C         12.23361        27.04963        -0.38458
C         13.57155        29.21331        -0.68467
C         12.29527        29.90949        -0.44457
C         15.90915         3.37533        -0.81393
C         14.76220         4.09222        -1.01308
C         16.02627         6.25346        -0.69863
C         14.81347         5.57580        -1.29753
C         16.00717         7.70456        -0.55774
C         14.80033         8.42417        -0.77992
C         16.01132        10.53266        -0.38397
C         14.79227         9.84285        -0.63662
C         16.01641        11.97253        -0.23996
C         14.80549        12.67840        -0.39880
C         15.99368        14.83007         0.17602
C         14.87063        14.14457        -0.46801
C         15.81998        16.22805         0.64067
C         14.69354        17.01998         0.05542
C         15.80201        19.12218         0.76287
C         14.72967        18.46755         0.17952
C         15.69763        20.62009         1.04991
C         14.58359        21.33620         0.33092
C         15.88214        23.48052         0.36239
C         14.61304        22.79436         0.29532
C         15.95680        24.85450         0.11292
C         14.73663        25.63695        -0.03445
C         16.06794        27.63496        -0.77515
C         14.77646        26.94921        -0.39392
C         16.05673        29.12014        -0.43405
C         14.87689        29.84191        -0.41653
C         18.42711         3.52587        -1.27013
C         17.22284         4.02139        -0.49024
C         18.44794         6.17699        -0.18289
C         17.16697         5.52703        -0.52291
C         18.44976         7.66213         0.02734
C         17.19810         8.40924        -0.23402
C         18.54696        10.54806        -0.24495
C         17.22031         9.81124        -0.23574
C         18.43575        11.98011         0.23538
C         17.20228        12.67998         0.11780
C         18.27465        14.72217         1.09149
C         17.14002        14.08883         0.45096
C         18.18419        16.05358         1.60207
C         16.95720        16.91637         1.37619
C         18.06776        19.20708         1.71919
C         16.97830        18.43707         1.32208
C         18.13590        20.72638         1.66744
C         17.00005        21.36547         0.93882
C         18.36988        23.38963         0.58550
C         17.08013        22.70672         0.62204
C         18.43278        24.78293         0.28724
C         17.22614        25.52743         0.03050
C         18.51425        27.60145        -0.16133
C         17.28511        26.90452        -0.25387
C         18.52501        29.04533        -0.22187
C         17.31204        29.76351        -0.26711
C         19.58350         4.22732        -1.27280
C         20.85280         6.28495        -0.67627
C         19.69327         5.54887        -0.67036
C         20.88704         7.66662        -0.26762
C         19.74606         8.36961        -0.00535
C         20.91919        10.58395         0.54039
C         19.64341         9.78033         0.52560
C         20.85232        11.92137         0.68904
C         19.57239        12.62312         0.71368
C         20.51879        14.45586         2.06491
C         19.46867        13.95750         1.26339
C         20.35926        15.65834         2.72626
C         19.20657        16.42528         2.48962
C         20.45150        19.33687         2.37855
C         19.23335        18.71035         2.42249
C         20.60555        20.57582         1.67557
C         19.49759        21.28259         1.28358
C         20.80389        23.32279         0.65495
C         19.56205        22.65889         0.81625
C         20.86672        24.67579         0.37778
C         19.69069        25.44961         0.22882
C         20.94056        27.61760         0.12161
C         19.73497        26.88969         0.05758
C         20.95018        29.01491         0.01636
C         19.76710        29.72645        -0.13093
O         14.43796        14.59910        -1.81265
O         15.81499        16.37158         2.12247
O         13.55527        28.40951        -1.94009
O          3.98660        15.83603         1.94084
O          2.71690        27.45909        -1.85137
O          6.58392        20.97466        -2.48986
O          3.69229        23.27463        -1.97348
O         18.42836         6.72603         1.19258
O         19.10037        17.58954         3.24665
O          4.28979        12.04881         2.64300
O         17.95783        21.15904         3.06811
H         17.00370        21.00898         3.28033
O          4.00180        20.86940        -2.24939
H          4.54257        21.15304        -3.01859
O         15.00422         5.66527        -2.75546
H         14.79916         6.58620        -3.02626
O          8.93426        16.64027         1.19382
H          8.21097        16.24209         1.72332
O          9.71037         9.94388        -2.51757
H          9.51308        10.89014        -2.74158
O          3.63015         8.02975        -0.91183
H          2.90845         7.46458        -1.25859
O         12.47954        17.04188        -2.45504
H         13.21705        17.66751        -2.66915
O         13.37348        25.09427         1.84468
H         14.12031        24.57154         2.20868
O          9.58071        16.69914        -2.41525
H         10.43659        16.86982        -2.87450
O          2.72077         8.20022         2.67842
H          3.66163         8.39686         2.92513
O          9.37968        22.60174         1.21119
H         10.20445        22.34622         1.67773
O         18.97880        10.57875        -1.63719
H         18.33084        11.11327        -2.14248
O          3.49179        15.24253        -1.30080
H          4.35987        14.95036        -1.64658
O         19.20955         9.65175         1.91028
H         19.02308         8.70727         2.10200
O          6.59620        10.70095         2.17823
H          5.82684        11.26175         2.54529
O         15.31661        20.68857         2.48443
H         14.68079        19.96180         2.66019
O          8.61055        12.32958        -2.09603
H          7.71404        12.15503        -2.45230
O          9.77367        12.56844         1.35767
H         10.53971        13.03423         1.75290
O          1.70495        25.26412         2.08535
H          2.39645        24.58626         2.28949
O         12.24010         8.57544        -2.78053
H         11.38222         9.02639        -2.99019
O          4.63376        20.84425         1.31434
H          4.34387        20.14904         1.94392
O         16.14976        27.55387        -2.23548
H         15.29833        27.92876        -2.57283
O          5.31249         8.30385         2.34956
H          5.93567         9.04250         2.59718
O         17.47879         3.65095         0.90896
H         18.08886         4.31964         1.28962
O          9.05590        20.63866        -2.76215
H          8.23022        20.46547        -3.27240
O          9.50327         5.54943        -2.51108
H         10.30873         5.19969        -2.94883
O         12.60685        21.56144        -2.15859
H         13.26388        22.28390        -2.25913
O          3.24050        23.09662         1.72313
H          3.92125        22.37882         1.83570
O          9.83356        31.25509        -0.90755
H          9.87074        31.04418        -1.86290
O         14.07862        19.26937        -1.96224
H         13.54348        19.99144        -2.38858
H          1.41678         2.30599         1.03934
H         -0.75145         3.52371         1.15382
H         -0.82305         5.99148         1.07482
H         -0.82504         7.95048         0.60804
H         -0.78981        10.37631         0.74216
H         -0.73108        12.22156         0.26387
H         -0.70189        14.65219        -0.01251
H         -0.65524        16.53643         1.13281
H         -0.75547        18.98549         0.94804
H         -0.85054        20.90769         0.41985
H         -0.87136        23.35031         0.44974
H         -0.90373        25.31358         0.83262
H         -0.96595        27.71590         0.42473
H          0.31049        29.89005         0.14753
H          3.85924         2.34145         0.72575
H          2.41177        31.10711        -0.25457
H          6.28059         2.35527         0.30090
H          4.92172        31.08602        -0.33813
H          8.68761         2.35528        -0.13134
H          7.37230        31.04527        -0.39172
H         11.10358         2.35708        -0.61125
H          9.81878        30.31034         0.91286
H         13.46477         2.34523        -0.90477
H         12.30724        31.00082        -0.30272
H         15.84147         2.28678        -0.65761
H         14.90542        30.92375        -0.21276
H         18.38420         2.53134        -1.73873
H         17.33753        30.85923        -0.16251
H         20.47757         3.81863        -1.76917
H         21.78424         5.82722        -1.04081
H         21.86556         8.16750        -0.24560
H         21.89285        10.07278         0.54472
H         21.77881        12.50832         0.77315
H         21.42271        13.85686         2.23247
H         21.11201        16.02617         3.43470
H         21.30882        18.90091         2.90735
H         21.62002        20.97651         1.54478
H         21.74299        22.76796         0.78318
H         21.85345        25.15018         0.29095
H         21.89539        27.09630         0.27174
H         21.90711        29.55218         0.07600
H         19.78207        30.82470        -0.17833
