         598
 CSIRO Nanostructure Databank - Neutral Graphene Oxide Data Set
C         22.93173        69.91075         1.22223
C         22.88456        71.32264         1.09516
C         21.65379        72.03514         1.11945
C         22.81853        74.15357         0.86966
C         21.63642        73.42538         1.00803
C         25.47047        65.65432         1.17884
C         25.41539        67.07413         1.35159
C         24.22110        67.77924         1.32080
C         25.36130        69.96789         1.10046
C         24.16029        69.22032         1.24895
C         25.34313        71.37175         0.90780
C         24.09897        72.06156         0.93655
C         25.29139        74.20047         0.69282
C         24.07528        73.49026         0.82795
C         27.88469        61.29438         0.31890
C         27.84452        62.69151         0.75361
C         26.53588        63.46466         0.67111
C         27.91054        65.62182         0.91922
C         26.65700        64.94995         0.97717
C         28.02045        67.05550         1.40653
C         26.69136        67.80792         1.51891
C         27.85677        69.99653         0.78630
C         26.65656        69.30263         1.27496
C         27.80145        71.39872         0.53246
C         26.56278        72.10033         0.70932
C         27.76344        74.23565         0.47151
C         26.53659        73.52878         0.61353
C         30.32272        57.05300        -0.22373
C         30.30545        58.47603        -0.13073
C         29.11289        59.19635        -0.01927
C         30.33785        61.37302         0.03461
C         29.08914        60.62089         0.14375
C         30.33389        62.76053         0.18021
C         29.16088        63.46495         0.70574
C         30.32499        65.65431         0.40972
C         29.12143        64.94752         0.63819
C         30.27746        67.13183         0.13269
C         29.06506        67.85082         0.65900
C         30.21588        69.93111        -0.03433
C         29.03060        69.23212         0.53861
C         30.17141        71.41186        -0.27773
C         28.95932        72.12970         0.14625
C         30.23469        74.24783         0.19383
C         28.97755        73.55450         0.24723
C         32.81716        52.76273        -0.59471
C         32.78718        54.16974        -0.51202
C         31.56501        54.90670        -0.38819
C         32.79178        57.05739        -0.15087
C         31.51886        56.30645        -0.26909
C         32.74649        58.52099        -0.32767
C         31.56378        59.21382        -0.22497
C         32.78569        61.36934        -0.33581
C         31.56857        60.67109        -0.23899
C         32.81546        62.83097        -0.44239
C         31.49545        63.56156        -0.20655
C         32.79945        65.66451         0.10407
C         31.55643        64.99548         0.14432
C         32.83869        67.09018         0.49789
C         31.54900        67.84575         0.55088
C         32.79034        70.05481         0.03221
C         31.53732        69.31704         0.30784
C         32.73805        71.43822        -0.21621
C         31.45941        72.18449        -0.56936
C         32.68509        74.28286        -0.00003
C         31.45597        73.60465        -0.04043
C         35.13946        48.32336        -0.56791
C         34.87552        49.65046        -0.95072
C         33.89243        50.58287        -0.58274
C         35.27466        52.73556        -0.81930
C         34.01254        52.00911        -0.73899
C         35.24030        54.16179        -0.69586
C         34.04584        54.85711        -0.54244
C         35.32614        57.03695        -0.69726
C         34.09406        56.31231        -0.29388
C         35.25549        58.49458        -0.87191
C         33.99067        59.23973        -0.64880
C         35.25026        61.39120        -0.43723
C         34.04514        60.69774        -0.41861
C         35.28160        62.82656        -0.31051
C         34.08580        63.55378        -0.26065
C         35.27281        65.72312        -0.14149
C         34.05724        64.99599        -0.10257
C         35.30664        67.15476        -0.15007
C         34.10221        67.89044         0.29468
C         35.22030        70.05725        -0.19190
C         34.02606        69.35796         0.06819
C         35.16404        71.46539        -0.36050
C         33.94549        72.16760        -0.33194
C         35.12906        74.35554        -0.22058
C         33.93853        73.63369        -0.25034
C         37.83803        44.30247        -1.28839
C         37.76829        45.60982        -0.84660
C         36.54411        46.33564        -0.83335
C         37.67426        48.50815        -0.48251
C         36.45542        47.74180        -0.67245
C         37.74136        49.90904        -0.45294
C         36.71249        50.72056        -0.99201
C         37.77200        52.78470        -0.35423
C         36.55649        52.09468        -0.73834
C         37.79381        54.25765        -0.34223
C         36.50169        54.94504        -0.53579
C         37.76548        57.07542        -1.29916
C         36.50047        56.38323        -0.89175
C         37.67708        58.57939        -1.26252
C         36.53548        59.21812        -0.85550
C         37.67727        61.45154        -1.08146
C         36.57900        60.65759        -0.38009
C         37.73846        62.86506        -0.59575
C         36.56388        63.51932        -0.30956
C         37.71912        65.65855        -0.79909
C         36.59983        64.99999        -0.00962
C         37.67032        67.15007        -0.92853
C         36.46345        67.87892        -0.45486
C         37.66650        70.03279        -0.47309
C         36.48162        69.32210        -0.37078
C         37.63794        71.48556        -0.18773
C         36.40919        72.21805        -0.58810
C         37.72035        74.41296        -0.18359
C         36.43219        73.73344        -0.47617
C         40.49790        40.05227        -1.82624
C         40.43009        41.49170        -1.70965
C         39.23800        42.18527        -1.74120
C         40.38711        44.39469        -1.11017
C         39.13615        43.64305        -1.53488
C         40.29306        45.66485        -0.35931
C         38.92211        46.26873        -0.11120
C         40.07713        48.42998         0.47535
C         39.00871        47.78042        -0.40925
C         40.08769        49.91795         0.65885
C         38.84981        50.64651         0.21912
C         40.08730        52.87391         0.47831
C         38.89910        52.10994         0.02977
C         40.20968        54.28134        -0.00355
C         39.09670        54.94024        -0.51773
C         40.43902        57.02121        -0.94543
C         39.12410        56.31132        -1.10522
C         40.68940        58.26689        -1.44434
C         38.83416        59.41016        -1.54196
C         40.30914        61.36861        -0.94731
C         39.01289        60.70856        -1.11109
C         40.27953        62.78725        -0.74518
C         39.02663        63.54359        -0.71604
C         40.28408        65.65302        -0.94867
C         39.01659        64.92023        -0.83388
C         40.26077        67.15853        -0.99823
C         38.95473        67.91458        -1.09453
C         40.25815        70.17020        -0.68056
C         38.94403        69.39605        -0.86529
C         40.14475        71.46537         0.12388
C         38.87438        72.24843         0.09596
C         40.19457        74.37717         0.10077
C         38.92003        73.73426        -0.02914
C         42.83600        35.66839        -1.43376
C         42.87282        37.18049        -1.44358
C         41.72252        37.88912        -1.69979
C         42.88399        40.01221        -1.20523
C         41.66597        39.32839        -1.61368
C         42.85547        41.37089        -1.00532
C         41.70214        42.19172        -1.40541
C         42.63767        44.15037         0.05619
C         41.68099        43.65320        -1.02607
C         42.72547        45.66283         0.09900
C         41.43983        46.31699         0.05476
C         42.63629        48.47676         0.72047
C         41.37510        47.70764         0.57355
C         42.59354        49.93116         0.82356
C         41.38669        50.62315         0.77267
C         42.65014        52.81764         0.74989
C         41.36350        52.10254         0.83128
C         42.66187        54.22713         0.50147
C         41.49491        54.90526         0.08083
C         42.93561        56.99449        -0.31906
C         41.62392        56.24964        -0.48978
C         42.99326        58.48145        -0.51626
C         41.79404        59.19506        -1.09111
C         42.74087        61.36860        -0.39646
C         41.56651        60.66164        -0.81429
C         42.72677        62.80026        -0.31659
C         41.49839        63.51862        -0.53260
C         42.67348        65.69004        -0.17287
C         41.50231        64.93748        -0.51273
C         42.63421        67.09298        -0.08271
C         41.38564        67.84260        -0.28782
C         42.66013        70.05133         0.12321
C         41.36986        69.32907        -0.06214
C         42.68281        71.46113         0.10001
C         41.42246        72.20510         0.30436
C         42.67428        74.32559         0.17821
C         41.42255        73.68667         0.23232
C         45.49275        33.00203        -2.05333
C         44.25264        33.66493        -1.96314
C         45.38223        35.72216        -1.33106
C         44.18851        35.01173        -1.60283
C         45.34914        37.13417        -1.03858
C         44.11763        37.85536        -1.12990
C         45.35082        39.94281        -0.80430
C         44.12254        39.26280        -1.01252
C         45.39627        41.45112        -0.94616
C         44.07174        42.05927        -0.53079
C         45.21778        44.31195        -0.06372
C         43.98920        43.46035        -0.03264
C         45.17782        45.68835         0.45006
C         43.88169        46.35253         0.47083
C         45.07394        48.49864         1.10621
C         43.83002        47.78369         0.73623
C         45.07676        49.97553         1.03218
C         43.85654        50.65892         0.93556
C         45.08599        52.81379         1.09220
C         43.85027        52.10236         0.91062
C         45.07833        54.24385         1.09535
C         43.90587        54.94816         0.68724
C         45.10386        57.10064         0.91247
C         43.97573        56.34563         0.49385
C         45.06208        58.56045         0.82085
C         44.00981        59.24380         0.22264
C         45.12066        61.42280         0.28235
C         43.95948        60.68558         0.03102
C         45.14971        62.84832         0.18101
C         43.91756        63.53874        -0.03057
C         45.08289        65.65150         0.45747
C         43.90566        64.96489         0.09543
C         45.02627        67.09242         0.74719
C         43.75106        67.84824         0.50422
C         45.07908        70.00693         0.44726
C         43.84421        69.32485         0.34438
C         45.10154        71.39967         0.18045
C         43.90533        72.15136         0.08530
C         45.13723        74.29975         0.00888
C         43.92253        73.61942         0.08145
C         46.66924        33.67259        -1.77447
C         47.84373        35.74503        -1.12390
C         46.64693        35.05036        -1.41033
C         47.84245        37.11503        -0.75051
C         46.56109        37.82338        -0.77375
C         47.87016        39.96476        -0.55106
C         46.54603        39.23281        -0.65302
C         47.75022        41.31845         0.10385
C         46.48582        42.07435        -0.08773
C         47.68288        44.22856         0.56382
C         46.52891        43.56706        -0.04008
C         47.64843        45.61085         0.75363
C         46.38495        46.32494         0.70863
C         47.64822        48.51951         0.96938
C         46.38772        47.75186         1.10826
C         47.56325        49.94455         1.01347
C         46.33645        50.66296         1.10713
C         47.49790        52.86052         1.49449
C         46.31313        52.11154         1.23493
C         47.49988        54.26904         1.59927
C         46.26850        54.98086         1.37680
C         47.49942        57.12565         1.67211
C         46.24370        56.40253         1.37498
C         47.52305        58.60874         1.57612
C         46.23138        59.32583         1.29036
C         47.63337        61.39690         0.67972
C         46.29744        60.76810         0.89034
C         47.64559        62.89102         0.50916
C         46.34442        63.57114         0.43960
C         47.53548        65.66612         0.98306
C         46.32556        64.96361         0.60684
C         47.35292        67.03933         1.34060
C         46.28355        67.83267         0.95808
C         47.69886        70.04803         0.61585
C         46.32685        69.30765         0.88505
C         47.62123        71.30046        -0.20856
C         46.34101        72.06567        -0.24610
C         47.70019        74.24239        -0.40719
C         46.37273        73.60632        -0.37705
C         49.01872        37.77634        -0.38524
C         50.23206        39.94526         0.25800
C         48.93903        39.15607         0.21112
C         50.22124        41.33606         0.47438
C         48.97632        42.03474         0.46792
C         50.19314        44.22406         1.07658
C         48.85783        43.42354         0.89791
C         50.11728        45.66563         0.89083
C         48.89553        46.34762         0.90386
C         50.13870        48.48707         0.93529
C         48.86470        47.80155         0.86633
C         50.12903        49.96758         0.90267
C         48.82034        50.71942         0.91280
C         50.02377        52.80367         1.89221
C         48.79419        52.17127         1.31481
C         50.00782        54.30856         2.17450
C         48.74309        55.00765         1.72619
C         50.02747        57.14188         1.64834
C         48.78231        56.38801         1.62758
C         50.05692        58.53186         1.48753
C         48.80351        59.22826         1.03525
C         50.05556        61.41970         1.17740
C         48.85869        60.72503         1.13197
C         50.06541        62.87090         1.04595
C         48.87916        63.61118         0.86343
C         50.10878        65.73931         0.87481
C         48.83314        65.04265         0.97928
C         50.21404        67.18374         0.65813
C         49.20126        68.07500         1.07920
C         50.16414        69.98278        -0.00849
C         48.99969        69.34607         0.53299
C         50.16516        71.37603        -0.26878
C         48.90255        72.05016        -0.56510
C         50.14930        74.21809        -0.70151
C         48.88655        73.54226        -0.59758
C         51.43783        42.10223         0.65026
C         52.66081        44.23516         0.92046
C         51.45555        43.48294         0.83505
C         52.66593        45.64183         0.97583
C         51.40639        46.37791         0.55511
C         52.58511        48.46884         1.46936
C         51.34402        47.81554         0.98750
C         52.60299        49.95173         1.64884
C         51.38728        50.69863         1.19965
C         52.57970        52.83385         1.52733
C         51.32202        52.08843         1.74590
C         52.42016        54.26175         1.22092
C         51.24208        55.00891         1.64618
C         52.53918        57.10559         1.55221
C         51.27524        56.39192         1.59979
C         52.51915        58.55806         1.84048
C         51.27198        59.29753         1.55815
C         52.56935        61.42054         1.37899
C         51.30452        60.69470         1.40144
C         52.56111        62.85878         1.15567
C         51.32202        63.56267         1.03665
C         52.54040        65.56987         0.28288
C         51.28980        64.96758         0.77894
C         52.52126        66.98249        -0.22541
C         51.32560        67.80630         0.03646
C         52.55019        69.87628        -0.71391
C         51.35560        69.20463        -0.15506
C         52.71193        71.34507        -0.54380
C         51.40017        72.12983        -0.29266
C         52.64889        74.17171        -0.85369
C         51.39434        73.55775        -0.65389
C         53.84978        46.34869         1.22715
C         55.06789        48.45617         1.65997
C         53.89094        47.76648         1.42152
C         55.18434        49.92023         1.88083
C         53.90054        50.72875         1.75236
C         54.92529        52.91577         0.87880
C         53.78135        52.17063         1.34100
C         54.95928        54.29885         0.91762
C         53.71440        55.05717         1.00212
C         55.07192        57.07111         1.81852
C         53.74243        56.45846         1.39118
C         55.09908        58.55554         1.53980
C         53.84137        59.29818         1.76363
C         55.09160        61.41073         1.44403
C         53.78296        60.72834         1.45493
C         55.09802        62.90299         1.33120
C         53.80138        63.57807         1.03684
C         55.06444        65.55548         0.26142
C         53.81788        64.90160         0.60014
C         55.08189        67.01426        -0.00174
C         53.80705        67.73640        -0.20775
C         55.10509        69.82894        -0.80081
C         53.84345        69.09418        -0.80272
C         55.07586        71.20429        -1.18967
C         53.90128        72.02873        -1.06762
C         55.08298        74.28645        -1.02859
C         53.89675        73.47916        -1.02246
C         56.56549        50.51404         1.91524
C         57.99367        52.59739         1.74185
C         56.89345        51.74175         1.39004
C         58.10315        53.93237         1.30185
C         56.17802        55.05341         0.81959
C         57.57245        57.04032         1.26737
C         56.29158        56.35467         1.25755
C         57.55974        58.45517         1.21339
C         56.30449        59.20799         1.28901
C         57.53655        61.31474         0.86019
C         56.33664        60.64350         1.18696
C         57.56295        62.72113         0.56776
C         56.42407        63.61166         1.04010
C         57.44462        65.49482        -0.34828
C         56.24649        64.86799         0.24043
C         57.49510        66.97065        -0.39296
C         56.34377        67.70675        -0.34216
C         57.56067        69.83962        -0.70918
C         56.33610        69.14722        -0.58332
C         57.57753        71.18886        -1.20093
C         56.32749        71.73653        -1.58695
C         57.65803        74.25968        -1.15980
C         56.35598        73.86271        -1.47928
C         58.97373        54.93512         1.75180
C         60.02446        57.09351         1.40246
C         58.83875        56.33596         1.42090
C         60.03649        58.47633         1.11084
C         58.77929        59.17807         1.05064
C         59.98745        61.24109         0.45665
C         58.76955        60.57069         0.78900
C         59.94618        62.57317         0.01355
C         58.72920        63.31094         0.06520
C         59.98264        65.47227        -0.62331
C         58.71219        64.71591        -0.44647
C         60.03111        66.85183        -0.63148
C         58.80418        67.62995        -0.33334
C         60.11459        69.81891        -0.71354
C         58.81858        69.13337        -0.41629
C         60.06262        71.27896        -1.07628
C         58.77212        71.97384        -1.28648
C         60.09087        74.03640        -1.43613
C         58.81804        73.41196        -1.37340
C         61.24661        59.17376         0.89012
C         62.46431        61.21834         0.24248
C         61.25549        60.53289         0.51723
C         62.48361        62.54958        -0.23818
C         61.17664        63.18076        -0.53560
C         62.47717        65.36283        -0.93483
C         61.19282        64.67221        -0.87542
C         62.44305        66.78974        -1.27506
C         61.23586        67.58073        -0.97834
C         62.51895        69.66529        -1.35739
C         61.29298        68.97780        -1.06484
C         62.50153        71.11076        -1.65818
C         61.29607        71.91784        -1.53842
C         62.58251        74.01913        -1.53097
C         61.32753        73.33112        -1.57801
C         63.66658        63.26839        -0.45127
C         64.93005        65.39273        -0.80717
C         63.69288        64.66483        -0.79688
C         64.99808        66.78708        -0.97739
C         63.78487        67.53221        -1.37119
C         64.98936        69.70117        -1.11722
C         63.75696        68.99903        -1.30412
C         65.02469        71.11652        -1.12938
C         63.85455        71.87999        -1.57895
C         64.99650        73.98537        -0.98513
C         63.80201        73.33913        -1.36512
C         66.16667        67.53536        -0.73116
C         67.35967        69.67464        -0.47510
C         66.18761        68.95866        -0.79259
C         67.38049        71.08842        -0.43213
C         66.18992        71.82095        -0.75282
C         67.38381        73.92405        -0.34847
C         66.18764        73.26087        -0.71195
C         68.55557        71.81049        -0.08582
C         68.54363        73.20184        -0.04757
O         54.40411        67.73412         1.12545
O         44.07041        42.34993         0.92411
O         35.82571        50.14338        -1.88921
O         52.34198        49.10423         2.79531
O         63.09819        67.04202        -2.56397
O         45.66948        47.99947         2.36830
O         42.19782        43.27429        -2.31395
O         31.44258        68.74984         1.67238
O         48.16300        71.22895        -1.55466
O         49.44063        43.71587         2.20867
O         46.03098        44.17836        -1.27512
O         33.69689        67.41069         1.63334
O         46.71633        41.39798         1.17527
O         57.82930        64.85462        -1.63718
O         40.44382        47.79773         1.73857
O         44.08250        67.39405         1.86818
O         31.99055        63.32168        -1.56561
O         46.14774        72.71106        -1.52992
O         42.97922        58.91421        -1.91974
O         58.89467        68.46301         0.88642
O         52.42184        65.91173        -1.19363
O         29.96974        70.42173        -1.37942
O         48.36220        67.63633         2.09708
O         56.02295        52.22289         0.38660
O         47.80598        61.97613        -0.65488
O         63.29807        71.44680        -2.84502
O         61.02823        63.63273        -1.91712
O         26.73657        68.71867         2.66209
O         40.92042        68.45226         0.99993
O         53.20109        58.94938         3.08158
O         52.32430        71.78298         0.79386
O         38.89308        68.82948        -2.23706
O         40.72913        71.54144         1.44514
O         40.46701        52.66558         1.86705
O         36.47872        73.00292        -1.79621
O         38.45414        56.42760        -2.40381
O         57.25311        54.36232         0.25831
O         39.79308        58.81842        -2.34819
O         37.35443        66.26043        -2.07259
O         34.43213        58.89872        -2.04818
O         39.91421        44.49419        -2.48951
O         53.01329        69.31983        -1.98331
O         60.35799        70.81385         0.33933
O         42.67293        56.25836        -1.54725
O         52.84473        54.69694        -0.12126
O         40.57287        66.43645        -2.21091
O         50.61621        52.08959         3.03857
O         51.02091        50.48692        -0.18113
O         47.52163        58.01031         2.88836
O         37.05570        54.79192         0.84410
O         55.16367        62.29724         2.66669
O         47.04435        70.07959         1.90534
O         28.61796        62.93694         1.96810
O         38.00023        71.81148         1.20973
O         39.05344        50.28499         1.63682
O         54.47150        50.48236         3.07300
O         48.86626        51.77633        -0.10438
O         33.59902        56.68879         1.04387
O         56.31501        72.81682        -2.44835
O         46.00243        60.38333         2.28183
O         36.95244        60.57897         1.02745
H         36.22829        60.14217         1.52300
O         25.97391        63.28966        -0.64295
H         26.52860        63.77059        -1.29047
O         51.49738        46.40719        -0.91881
H         50.79768        47.01028        -1.25026
O         28.56321        66.92514         2.75580
H         28.26681        67.72483         3.25233
O         55.11570        56.91118         3.27524
H         54.45133        57.54418         3.64491
O         40.70977        70.59387        -1.98659
H         40.30049        69.98456        -2.64935
O         31.52457        72.35836        -2.01483
H         31.14876        71.53971        -2.41476
O         48.32226        40.21925        -1.90978
H         48.56012        39.35524        -2.31050
O         45.65480        41.73751        -2.33245
H         46.52757        41.34735        -2.56469
O         42.00468        43.77948         1.30851
H         42.56258        43.07433         1.71871
O         39.56386        47.91993        -1.75353
H         39.04004        47.36055        -2.36701
O         37.00240        65.16451         1.38908
H         36.26181        64.87088         1.96052
O         30.26842        67.26132        -1.32999
H         29.49165        66.77775        -1.68077
O         56.91837        64.11929         2.32528
H         56.54110        63.52453         3.01855
O         48.68710        58.95612        -0.41231
H         49.27947        59.57177        -0.89513
O         38.57188        46.04162         1.27191
H         39.24741        46.49735         1.83616
O         48.47756        38.98420         1.58660
H         48.06987        39.82381         1.89295
O         41.90196        35.17036        -2.39752
H         42.21993        35.41784        -3.28966
O         37.26432        61.54000        -2.47504
H         37.90191        62.10863        -2.95545
O         50.02055        54.48736         3.61824
H         50.43004        53.67817         4.00771
H         22.78517        75.24954         0.79037
H         25.26798        75.29823         0.62331
H         27.75757        75.33476         0.50376
H         30.23714        75.32639         0.41583
H         32.69296        75.35673         0.24460
H         35.09812        75.42794         0.02711
H         37.71514        75.51369        -0.14533
H         40.22496        75.47521         0.02220
H         42.70331        75.42497         0.12332
H         45.16254        75.39009         0.15467
H         47.74681        75.33622        -0.29290
H         50.13575        75.30894        -0.84833
H         52.66992        75.26726        -0.96191
H         54.99934        75.28942        -0.58255
H         57.82863        75.22795        -0.66611
H         60.12975        75.13544        -1.39525
H         62.56971        75.11482        -1.43134
H         65.00308        75.08024        -0.87654
H         67.39696        75.02262        -0.30606
H         21.99152        69.34918         1.32647
H         20.71230        71.47931         1.23417
H         20.67481        73.95711         1.03402
H         24.51858        65.10431         1.13059
H         23.27478        67.22094         1.25622
H         26.93346        60.75832         0.18381
H         25.80276        63.00826         1.38470
H         29.36044        56.51890        -0.25273
H         28.15747        58.65160         0.02339
H         31.86624        52.21385        -0.51948
H         30.61744        54.34681        -0.41226
H         34.33115        47.69303        -0.16789
H         32.98004        50.21436        -0.08958
H         36.92337        43.80375        -1.64802
H         35.61926        45.79117        -1.08112
H         39.57393        39.51266        -2.08458
H         38.29820        41.62529        -1.86561
H         42.43824        35.35247        -0.42613
H         40.80703        37.33801        -1.96351
H         45.51861        31.94098        -2.33815
H         43.32116        33.12274        -2.17815
H         47.63529        33.15119        -1.83418
H         48.79921        35.20029        -1.15566
H         49.97177        37.22572        -0.37680
H         51.18877        39.40391         0.31154
H         52.39685        41.57138         0.55307
H         53.61606        43.69315         1.00033
H         54.78293        45.77907         1.36135
H         56.01231        47.89089         1.61687
H         57.24432        50.04969         2.64761
H         58.67865        52.25317         2.52997
H         59.85694        54.64575         2.34262
H         60.98610        56.57493         1.53394
H         62.19894        58.62654         0.95542
H         63.41874        60.68969         0.38715
H         64.62756        62.76510        -0.26569
H         65.85473        64.84663        -0.56720
H         67.08898        67.00833        -0.44361
H         68.27706        69.11879        -0.22896
H         69.47601        71.25832         0.15177
H         69.45986        73.74410         0.22529
