         280
 CSIRO Nanostructure Databank - Neutral Graphene Oxide Data Set
C         30.50737        31.82315        -0.51387
C         30.61330        33.11393        -0.53257
C         30.51673        36.25352        -0.15039
C         30.42102        37.47837        -0.02210
C         30.98622        40.01693        -1.21509
C         30.34853        40.32680        -2.26042
C         32.84193        28.93570         0.21089
C         31.82952        29.62734        -0.04839
C         32.93331        31.78844         0.05133
C         31.55624        30.99161        -0.24135
C         32.97766        33.21511        -0.62655
C         31.65308        33.99203        -0.41217
C         32.84679        36.10057         0.09941
C         31.66475        35.39266        -0.20405
C         32.85704        37.54586         0.32403
C         31.51508        38.33674         0.55748
C         32.74046        40.52844         0.43928
C         31.66116        39.68597        -0.07147
C         32.73573        41.99254         0.21500
C         31.55001        42.71910         0.38707
C         32.86879        44.66941         0.32314
C         31.74881        44.15837         0.48222
C         35.72468        27.46259         1.04062
C         35.48013        28.74223         0.33458
C         34.20884        29.42457        -0.04324
C         35.48115        31.76205        -0.13462
C         34.20387        30.97269        -0.24719
C         35.51329        33.30045        -0.10131
C         34.16066        34.00186        -0.07012
C         35.19599        36.05618         0.95252
C         34.09849        35.35714         0.16945
C         35.34092        37.62167         0.79995
C         34.02184        38.26677         0.42437
C         35.31516        40.46426         0.10192
C         34.06689        39.75692         0.54733
C         35.27082        41.82354        -0.13907
C         34.11378        42.64257         0.44566
C         35.23920        44.75483        -0.45027
C         34.15189        44.12163         0.04222
C         35.50121        46.15447        -0.49301
C         38.02254        26.86451         2.00907
C         36.64381        26.83994         1.57997
C         38.00057        28.95747         0.21187
C         36.69955        29.60421         0.65104
C         37.87668        31.70368         0.61757
C         36.72590        31.06357         0.27568
C         37.85825        33.16481         0.91634
C         36.54238        33.87275         0.87812
C         37.80394        36.04613         0.41018
C         36.55773        35.37131         0.89656
C         37.69225        37.38432        -0.30857
C         36.52033        38.24668         0.10598
C         37.74805        40.30798        -0.44580
C         36.53070        39.65217        -0.14704
C         37.72479        41.73070        -0.86263
C         36.41757        42.50546        -0.81171
C         37.78252        44.72682        -0.72152
C         36.44698        44.03943        -1.07293
C         37.85712        46.10121        -0.55525
C         36.57333        46.77932        -0.53706
C         40.14574        24.63073        -0.06095
C         39.14808        25.15268         0.52244
C         40.37048        27.18613         1.00082
C         39.08314        26.38073         1.22556
C         40.41371        28.74689         1.04939
C         39.13253        29.48983         0.74081
C         40.39291        31.65457         0.74594
C         39.08677        30.94589         1.18947
C         40.36295        33.13345         0.51435
C         39.10426        33.93032         0.64552
C         40.15132        35.89419        -0.55467
C         39.01705        35.21331         0.18462
C         40.17318        37.39540        -0.31957
C         39.01946        38.10011        -0.31993
C         40.30766        40.25678        -0.48623
C         39.00996        39.53212        -0.79171
C         40.30636        41.72325        -0.73622
C         39.03868        42.47765        -1.00321
C         40.19510        44.59690        -0.06777
C         39.10612        44.03294        -1.01109
C         40.24582        46.07444         0.05950
C         39.09731        46.77807        -0.23454
C         40.28096        48.87226         0.28478
C         39.31065        48.19876        -0.09214
C         42.72735        24.44266        -0.41294
C         41.50972        24.99159        -0.06303
C         42.46426        27.34222        -0.47947
C         41.51712        26.48411         0.32297
C         42.74275        28.71263         0.04681
C         41.60311        29.40293         0.35860
C         42.70204        31.55041        -0.42140
C         41.38431        30.83839        -0.09387
C         42.75963        33.01923        -0.26530
C         41.42570        33.70961        -0.43138
C         42.66247        35.89178         0.08885
C         41.46009        35.20168        -0.32438
C         42.66473        37.41048         0.14163
C         41.48891        38.06698        -0.62579
C         42.78683        40.21121        -0.19775
C         41.48587        39.56527        -0.39588
C         42.82733        41.70171        -0.19329
C         41.57567        42.47677        -0.44626
C         42.71835        44.53844         0.56253
C         41.46741        43.84068         0.16367
C         42.71233        45.92616         0.84875
C         41.41609        46.74639         0.77367
C         42.74507        48.75072         1.22480
C         41.66487        48.26907         0.26382
C         43.81121        25.20740         0.02848
C         45.15671        27.29666         0.88536
C         44.64474        26.12967         0.11636
C         45.22028        28.69405         0.13975
C         44.05207        29.35474        -0.12992
C         45.25339        31.61335        -0.31679
C         44.01978        30.81150        -0.43934
C         45.23513        32.98284        -0.33210
C         43.95988        33.68379        -0.23564
C         45.32757        35.80286         0.28006
C         43.96892        35.12448         0.13003
C         45.26554        37.32178         0.21692
C         44.01567        38.02111        -0.30910
C         45.23923        40.23799         0.18627
C         43.94288        39.50085        -0.00752
C         45.02913        41.50631         1.00666
C         43.94080        42.39768         0.47127
C         45.21075        44.44992         1.10533
C         43.90200        43.74820         0.76227
C         45.05421        45.78795         1.87005
C         43.87111        46.56097         1.36324
C         43.69395        47.96673         1.45714
C         47.62200        27.43301         0.71929
C         46.59744        27.00129         1.24663
C         47.87083        28.67838        -0.07880
C         46.51904        29.51566         0.24284
C         47.79345        31.66354        -0.21291
C         46.54095        30.85663        -0.53219
C         47.79660        33.05462        -0.39809
C         46.48748        33.70282        -0.84641
C         47.76089        35.91114        -0.13520
C         46.47190        35.30042        -0.63608
C         47.74438        37.27225         0.55594
C         46.43030        37.99937         0.36685
C         47.68188        40.24103         0.58845
C         46.40977        39.43883         0.82102
C         47.63202        41.60603         0.80632
C         46.35147        42.22314         1.15483
C         48.16324        44.71349         1.49842
C         46.25859        43.48957         1.65490
C         47.57622        46.03149         1.54798
C         46.42196        46.42612         1.73521
C         50.44409        28.92114         0.01486
C         49.09100        29.48156         0.37549
C         50.29567        31.61709        -0.65900
C         49.06253        30.88491        -0.26647
C         50.32739        33.09734        -0.26632
C         48.99910        33.80622        -0.46850
C         50.21503        35.99986        -0.35476
C         48.99237        35.25459        -0.37839
C         50.21590        37.41572         0.06832
C         48.94023        38.15051         0.19305
C         50.07375        40.37331        -0.10372
C         48.90584        39.53978         0.23436
C         49.95579        41.78818        -0.27248
C         48.64881        42.51300         0.08659
C         49.94973        44.51617        -0.24503
C         48.91533        44.02848         0.58793
C         51.51644        29.52599        -0.12255
C         52.78575        31.80462        -0.51985
C         51.89788        30.70705        -0.91047
C         52.72648        33.01879        -0.77661
C         51.51989        33.85227        -0.86890
C         52.58654        36.25839        -0.88495
C         51.43900        35.34774        -0.90543
C         52.54097        37.48051        -0.72032
C         51.50229        38.29134        -0.09636
C         52.27572        40.56064        -0.92411
C         51.31510        39.71197        -0.36255
C         52.15842        41.79180        -1.17707
C         51.02371        42.55260        -0.86255
C         50.76517        43.96960        -1.02427
O         37.46730        36.00950         1.83253
O         51.23658        34.52675        -2.09720
O         41.53329        26.68238         1.76583
O         43.26734        31.09357        -1.69334
O         40.39125        43.88073         1.19543
O         40.93197        32.55973         1.74358
O         35.02313        28.72632        -1.02699
O         49.48145        31.09615        -1.69449
O         42.54014        42.33379        -1.51991
O         42.74099        27.09796        -1.64213
O         36.98508        33.29142         2.12294
O         46.43214        33.44508        -2.23018
O         43.21366        35.32145         1.39279
O         34.68293        35.86767         2.26071
O         34.93904        31.30991        -1.44849
O         47.39327        43.91381         2.36242
O         39.81926        41.95522        -2.13325
O         33.35328        40.18500         1.74516
O         51.14324        37.77489         1.18825
O         36.84488        41.83892        -2.04786
O         37.34594        37.08004        -1.69646
H         37.70082        37.80727        -2.26091
O         46.56135        29.92705         1.61959
H         46.40185        29.14242         2.18806
O         31.34414        38.47599         1.95070
H         31.45480        37.60321         2.38110
O         41.62919        37.89739        -2.07681
H         40.89171        38.41730        -2.48333
O         33.09233        33.07853        -2.04822
H         33.78111        32.39824        -2.24885
O         44.33851        27.50617         2.02366
H         44.03706        26.64262         2.37611
O         36.12645        33.69217        -1.36825
H         35.59539        33.30906        -2.10022
O         45.74596        44.81873        -0.20098
H         46.01362        44.00421        -0.68579
O         45.76799        35.42448         1.62300
H         44.96085        35.38814         2.18955
O         39.81690        35.76104        -1.97520
H         40.52748        36.21751        -2.47999
O         44.82522        45.48511         3.24381
H         44.63208        46.31395         3.72964
O         40.98467        46.88886         2.14566
H         40.69776        46.00690         2.46684
O         38.98535        39.38045        -2.26872
H         39.05681        40.29836        -2.64097
O         47.89148        37.00095         1.99247
H         47.19106        36.32911         2.21036
O         47.94768        42.76874        -1.16080
H         48.56984        43.22390        -1.77059
O         46.35121        35.86983        -1.94259
H         46.37311        35.06968        -2.56345
O         36.67548        29.61591         2.12513
H         37.30294        30.31071         2.46001
O         30.31088        42.24872         0.43274
H         30.24994        41.29237         0.22524
O         35.65054        38.06360         2.14359
H         35.35061        37.28558         2.72670
O         42.45644        37.80674         1.51144
H         42.73571        37.05718         2.08657
O         38.95623        31.05737         2.62101
H         39.54598        31.79212         2.91546
O         38.00553        27.86949        -0.60244
H         37.10727        27.67950        -0.94455
O         45.66404        40.63528        -1.13806
H         45.58929        39.85245        -1.72765
O         32.95115        31.95298         1.46827
H         32.19551        32.51401         1.74319
O         40.67914        30.62867        -1.34684
H         41.36550        30.48264        -2.03986
O         48.00272        28.39549        -1.44196
H         47.19457        27.95329        -1.77314
O         46.24854        39.28172         2.26394
H         46.94885        38.64287         2.55198
O         44.21497        37.91367        -1.74085
H         43.36376        38.10986        -2.20471
O         42.16474        48.26738        -1.03071
H         42.24321        49.18325        -1.36648
O         39.48494        44.45016        -2.33836
H         39.93064        43.68951        -2.78169
O         34.37210        42.67577         1.87678
H         34.06008        41.81419         2.25303
O         50.53195        33.05256         1.17148
H         50.54051        33.96702         1.52592
O         40.69262        29.06371         2.44464
H         41.37781        28.42634         2.75072
O         40.95712        33.34056        -1.76067
H         41.63277        33.60860        -2.41779
O         36.26029        44.23847        -2.48830
H         36.78117        43.55127        -2.96244
O         44.52313        41.18878         2.32590
H         45.13371        40.53517         2.74597
O         52.00485        30.44075        -2.24837
H         51.31458        29.80071        -2.51948
O         38.28701        27.69594         3.01878
H         37.51507        28.29034         3.18832
O         49.07136        29.68420         1.77838
H         48.99496        28.81000         2.21571
O         46.63530        30.66118        -1.95649
H         46.57095        31.58010        -2.35417
