         430
 CSIRO Nanostructure Databank - Neutral Graphene Oxide Data Set
C         27.98020        27.39966        -1.01213
C         27.94459        28.81522        -0.89661
C         26.75427        29.54726        -1.15352
C         27.91129        31.64245        -0.68117
C         26.74649        30.92083        -1.07862
C         27.92017        33.09809        -0.66802
C         26.77192        33.87071        -0.89329
C         27.98108        36.02362        -0.83172
C         26.79132        35.27110        -0.91234
C         27.97281        37.43840        -0.68083
C         26.77453        38.19490        -0.56477
C         27.98259        40.31384        -0.16245
C         26.77805        39.56046        -0.36947
C         27.98015        41.72778         0.05319
C         26.75327        42.49025         0.05128
C         27.92735        44.57401         0.54982
C         26.72453        43.83161         0.32111
C         27.92717        45.91597         0.84815
C         30.37311        27.39232        -0.51000
C         29.15476        26.71315        -0.81254
C         30.36114        28.79276        -0.35098
C         29.12969        29.51472        -0.52134
C         30.25746        31.62808         0.24936
C         29.08299        30.92377        -0.37206
C         30.31752        33.08427        -0.13822
C         29.17630        33.78113        -0.46359
C         30.53006        35.97879        -0.47837
C         29.24825        35.24318        -0.76707
C         30.54464        37.48013        -0.53824
C         29.22928        38.21777        -0.64263
C         30.43103        40.27741         0.15466
C         29.22471        39.62719        -0.20025
C         30.40568        41.66859         0.44707
C         29.20775        42.38655         0.32493
C         30.34453        44.49872         1.18061
C         29.25904        43.89933         0.28367
C         30.37181        46.00200         1.02020
C         29.15766        46.64485         0.95464
C         32.87209        24.56800        -0.52131
C         31.66540        25.26123        -0.51352
C         32.85712        27.37453        -0.26259
C         31.62661        26.66154        -0.41777
C         32.84771        28.79081        -0.12497
C         31.59738        29.51663        -0.11433
C         32.80865        31.64000         0.22056
C         31.57916        30.89984         0.08618
C         32.80117        33.02579         0.36673
C         31.54278        33.78263         0.30971
C         32.86524        36.04686         0.69006
C         31.58444        35.27695         0.33335
C         33.00007        37.38405        -0.11896
C         31.73427        38.19146        -0.04995
C         32.93383        40.26093         0.50519
C         31.69977        39.54746         0.21543
C         32.92553        41.63800         0.76420
C         31.62066        42.30807         1.10008
C         32.86574        44.50678         0.96688
C         31.67706        43.81322         0.99181
C         32.86787        45.97015         0.93206
C         31.64783        46.69133         0.99198
C         32.86444        48.79068         0.81546
C         31.67847        48.10767         0.96414
C         35.38761        23.12804        -0.72071
C         35.36263        24.51930        -0.51244
C         34.10233        25.23706        -0.42503
C         35.33195        27.34860        -0.07347
C         34.10352        26.65767        -0.25600
C         35.31827        28.77040         0.08677
C         34.07974        29.48958         0.02988
C         35.29807        31.58509         0.34131
C         34.07916        30.91123         0.17536
C         35.29172        33.07552         0.60562
C         34.06513        33.79442         0.03887
C         35.35413        35.89891         0.54888
C         34.11597        35.23440         0.51588
C         35.37743        37.36845         0.91474
C         34.19039        38.13107         0.38231
C         35.40757        40.18800         0.85977
C         34.17432        39.51058         0.55096
C         35.36967        41.61431         1.14386
C         34.12565        42.37188         0.96390
C         35.37653        44.51729         0.91988
C         34.14802        43.79449         0.98526
C         35.35960        45.96961         0.77016
C         34.09970        46.67539         0.79565
C         35.32245        48.81600         0.46463
C         34.09298        48.09710         0.69541
C         35.33774        50.22070         0.27389
C         37.81626        23.11572        -0.75479
C         36.59043        22.44258        -0.83581
C         37.83380        24.51874        -0.51845
C         36.59717        25.22295        -0.39872
C         37.80571        27.30418         0.11571
C         36.59046        26.63540        -0.11510
C         37.78381        28.70101         0.68890
C         36.53400        29.47356         0.32176
C         37.79533        31.58560         0.72205
C         36.52021        30.86621         0.43796
C         37.81915        33.07934         0.67203
C         36.57468        33.74057         0.08656
C         37.82926        35.94129        -0.02896
C         36.55630        35.22766         0.28905
C         37.83487        37.41169         0.31412
C         36.66069        38.09193         0.59728
C         37.88805        40.23904         0.62253
C         36.65312        39.51351         0.75819
C         37.91287        41.65564         0.66208
C         36.70947        42.39607         1.05205
C         37.84640        44.51566         0.55488
C         36.63551        43.84094         0.82298
C         37.88641        46.00080         0.80731
C         36.55329        46.68064         0.60345
C         37.76830        48.80634         0.14676
C         36.54962        48.10173         0.41005
C         37.75851        50.21330         0.01370
C         36.52284        50.89931         0.07039
C         40.32607        20.26098        -0.69217
C         39.14038        20.90937        -0.80184
C         40.38684        23.13721        -0.76428
C         39.08138        22.37179        -0.96554
C         40.32522        24.55534        -0.36955
C         39.08015        25.23161        -0.33499
C         40.28799        27.31652         0.20875
C         39.04864        26.62306        -0.00569
C         40.28756        28.76691         0.36102
C         39.07253        29.46570         0.46288
C         40.27631        31.61042         0.37457
C         39.07808        30.87546         0.53566
C         40.28029        33.06339         0.29341
C         39.09061        33.78086         0.44086
C         40.30133        35.96797         0.12681
C         39.06686        35.27032         0.62273
C         40.30242        37.36035         0.02745
C         39.07305        38.10656         0.24277
C         40.31503        40.23200         0.10292
C         39.09755        39.52074         0.33789
C         40.31687        41.65618         0.10993
C         39.08995        42.37921         0.34886
C         40.26728        44.53904        -0.00617
C         39.05993        43.81166         0.32298
C         40.24518        45.94342        -0.13696
C         39.04251        46.70050         0.13934
C         40.15687        48.79028        -0.70401
C         38.99693        48.06082        -0.06003
C         40.21670        50.24472        -0.32374
C         39.01968        50.95177        -0.10796
C         40.27870        53.04134        -0.03161
C         39.07151        52.35558         0.05733
C         42.78675        20.24400        -0.33318
C         41.58089        20.96511        -0.53620
C         42.79505        23.06034        -0.10176
C         41.60103        22.36873        -0.45101
C         42.78007        24.48453         0.06070
C         41.53180        25.21717        -0.03021
C         42.75032        27.33673         0.65571
C         41.50091        26.61713         0.21066
C         42.76741        28.79634         0.27525
C         41.51894        29.49147         0.31767
C         42.75099        31.62559         0.14110
C         41.51540        30.91379         0.26523
C         42.73964        33.05844         0.02747
C         41.51183        33.74821         0.05055
C         42.76187        35.91481        -0.25736
C         41.46057        35.17833        -0.40984
C         42.75212        37.33063        -0.35257
C         41.51313        38.07226        -0.24493
C         42.71402        40.20880        -0.47583
C         41.52191        39.50466        -0.21432
C         42.74205        41.63762        -0.41065
C         41.52434        42.36682        -0.10926
C         42.69129        44.48523        -0.49356
C         41.50811        43.80502        -0.17930
C         42.65383        45.90218        -0.79721
C         41.43598        46.66761        -0.50574
C         42.71642        48.79035        -0.54278
C         41.46858        48.05859        -0.57365
C         42.69800        50.19125        -0.34196
C         41.46343        50.91778        -0.29024
C         42.74995        53.03903        -0.34384
C         41.48522        52.34268        -0.18680
C         43.96749        20.90713        -0.07325
C         45.23681        23.03199         0.30503
C         44.00723        22.32219         0.05148
C         45.21350        24.44246         0.41890
C         43.99934        25.16139         0.32585
C         45.22514        27.29791         0.22956
C         44.03166        26.60916         0.36406
C         45.21560        28.72798        -0.25392
C         43.95923        29.48438         0.09763
C         45.21990        31.62657        -0.07041
C         43.97731        30.91634         0.03476
C         45.21430        33.05416        -0.11176
C         43.98051        33.76444        -0.12013
C         45.21605        35.91653        -0.25670
C         43.97949        35.20246        -0.21678
C         45.20934        37.33507        -0.42802
C         43.97377        38.01928        -0.51237
C         45.22883        40.16668        -0.75919
C         43.92808        39.44787        -0.96397
C         45.17661        41.61357        -0.98212
C         43.93163        42.33552        -0.67747
C         45.25190        44.52846        -0.72466
C         44.00461        43.78350        -0.30311
C         45.26280        45.93651        -0.71594
C         44.00573        46.68830        -0.87155
C         45.22090        48.79504        -0.38999
C         43.97088        48.10458        -0.56692
C         45.23084        50.19208        -0.15707
C         43.93829        50.91964         0.12131
C         43.92113        52.37057        -0.29614
C         47.69089        23.05215         0.43887
C         46.48985        22.35496         0.37182
C         47.73528        24.45217         0.53582
C         46.45870        25.19273         0.82345
C         47.68824        27.32732         0.29866
C         46.48135        26.62663         0.35465
C         47.69175        28.77521         0.13981
C         46.49062        29.48482         0.00953
C         47.70069        31.62905        -0.08926
C         46.47562        30.91359        -0.05966
C         47.69779        33.07635        -0.13003
C         46.45464        33.78040        -0.13261
C         47.68352        35.93494        -0.19239
C         46.45558        35.20751        -0.19131
C         47.67794        37.36241        -0.31571
C         46.45269        38.05554        -0.47770
C         47.69779        40.22432        -0.59486
C         46.43823        39.49421        -0.63339
C         47.72195        41.62218        -0.71519
C         46.48499        42.37135        -0.98607
C         47.70745        44.52305        -0.73985
C         46.47265        43.83358        -0.77179
C         47.71537        45.94268        -0.67031
C         46.48146        46.65474        -0.65939
C         47.69697        48.79353        -0.42912
C         46.46407        48.08972        -0.51870
C         47.66335        50.18701        -0.19774
C         46.45684        50.86148        -0.04948
C         50.20663        24.51820         0.60188
C         48.95922        25.18962         0.53419
C         50.16894        27.33813         0.48281
C         48.94794        26.62460         0.46104
C         50.16365        28.79087         0.36404
C         48.93478        29.49207         0.18052
C         50.17899        31.61335         0.01910
C         48.94151        30.90991         0.00931
C         50.18795        33.05911        -0.43526
C         48.91076        33.80122        -0.14751
C         50.15477        35.95890        -0.01794
C         48.92818        35.22599        -0.12008
C         50.14828        37.38609        -0.06169
C         48.91984        38.08783        -0.27641
C         50.16179        40.22297        -0.36177
C         48.92762        39.50725        -0.39962
C         50.17177        41.64447        -0.50263
C         48.94521        42.35628        -0.63935
C         50.17812        44.49119        -0.74184
C         48.94748        43.78484        -0.71415
C         50.18989        45.93435        -0.72513
C         48.96244        46.65487        -0.64308
C         50.19615        48.75609        -0.53007
C         48.95337        48.07509        -0.54034
C         51.39231        25.21902         0.62800
C         52.66764        27.34382         0.56710
C         51.40976        26.63439         0.57419
C         52.66519        28.83731         0.82032
C         51.36080        29.51951         0.46508
C         52.60533        31.69861         0.71788
C         51.36486        30.92609         0.30755
C         52.66835        33.07289         0.07624
C         51.41939        33.83198        -0.06244
C         52.63661        35.95527         0.21415
C         51.42463        35.23873         0.05215
C         52.55618        37.39899         0.66854
C         51.36551        38.12715         0.07643
C         52.64124        40.26046        -0.13248
C         51.38958        39.51518        -0.12255
C         52.65303        41.63894        -0.41940
C         51.40746        42.36648        -0.56553
C         52.67078        44.48002        -1.09774
C         51.39966        43.75923        -0.74458
C         52.67390        45.95224        -0.76924
C         51.43236        46.65163        -0.70470
C         51.38947        48.07057        -0.60409
C         55.12084        27.41286         0.39327
C         53.88086        26.70346         0.41698
C         55.14711        28.78541         0.32018
C         53.83898        29.51907         0.11021
C         55.10805        31.63180         0.56638
C         53.91272        30.97353         0.48802
C         55.09120        33.11904         0.88739
C         53.96676        33.78842         0.09328
C         55.17368        35.95904         0.48171
C         53.96236        35.30221        -0.12527
C         55.19358        37.43215         0.52610
C         53.87334        38.17871         0.56310
C         55.10840        40.24390        -0.05977
C         53.87769        39.57819         0.09446
C         55.12971        41.66559        -0.26714
C         53.89866        42.35926        -0.45223
C         55.13100        44.47569        -0.60745
C         53.91664        43.76122        -0.65780
C         55.11784        45.90762        -0.69602
C         53.92436        46.60852        -0.71127
C         56.36777        29.54012         0.31557
C         56.35214        30.90350         0.40894
C         56.39295        33.85281         0.74744
C         56.35284        35.23571         0.70703
C         56.37388        38.14574         0.02515
C         56.33870        39.48820        -0.14510
C         56.34659        42.40324        -0.25259
C         56.34895        43.77187        -0.39684
O         30.08427        37.99556        -1.83372
O         36.13446        41.99588         2.33403
O         31.12396        34.59223         1.55020
O         39.85151        22.87152        -2.11092
O         43.26731        46.28263        -2.07485
O         53.57294        33.07340        -1.11995
O         37.70990        32.39885         1.97905
O         45.83025        42.01384        -2.26624
O         54.66921        38.01363         1.79461
O         30.28210        35.44082        -1.81366
O         38.91371        35.52773         2.04783
H         39.55766        34.97160         2.53356
O         52.86420        29.03761         2.26038
H         52.20395        28.48523         2.73037
O         44.17707        43.76811         1.19305
H         43.39588        43.30344         1.56669
O         35.19722        33.26540         2.03362
H         36.03229        32.91704         2.43440
O         32.73264        36.46742         2.07480
H         32.30389        35.71458         2.54929
O         38.04613        35.82297        -1.48034
H         37.39781        36.40800        -1.92795
O         43.77744        39.37701        -2.44381
H         44.07201        40.24119        -2.80739
O         38.16313        46.11963         2.25799
H         37.46231        45.61936         2.72915
O         34.06779        33.82963        -1.41533
H         35.00615        33.73439        -1.72345
O         45.16201        28.59061        -1.72828
H         45.25352        29.49043        -2.10891
O         29.98837        31.63885         1.70399
H         30.53972        32.34873         2.10050
O         52.23699        37.29725         2.09592
H         53.10382        37.33460         2.57032
O         52.71514        44.43695        -2.58849
H         53.53966        44.89583        -2.85888
O         35.26266        37.43922         2.37171
H         34.36136        37.09434         2.59894
O         39.86113        48.79801        -2.15592
H         39.99416        47.88328        -2.48533
O         29.92463        44.23929         2.56640
H         30.47276        44.80372         3.15187
O         31.43774        42.00753         2.53334
H         30.69082        42.58154         2.83957
O         54.08320        35.54407        -1.57442
H         53.82548        34.69189        -2.00810
O         42.67445        27.34087         2.13317
H         41.81707        27.74971         2.38003
O         53.54035        29.46724        -1.31565
H         54.15404        30.07748        -1.77578
O         37.69550        28.51302         2.15058
H         37.62323        29.40434         2.55536
O         43.82764        50.93079         1.60028
H         42.99271        51.39706         1.82167
O         29.62844        44.23284        -1.08718
H         28.93163        43.87981        -1.67901
O         33.23778        37.02446        -1.50817
H         32.37701        36.87107        -1.95584
O         54.71813        33.27592         2.29117
H         55.39131        32.81944         2.83686
O         41.22243        35.08947        -1.87887
H         41.21430        36.00806        -2.22521
O         36.69220        33.46461        -1.35154
H         37.33536        34.13123        -1.71125
O         50.24189        32.96133        -1.91994
H         50.23043        33.87685        -2.27288
O         52.44943        31.88342         2.15222
H         52.58326        30.99360         2.55958
O         46.39947        25.27955         2.30796
H         46.29821        24.36307         2.64339
H         27.06025        26.85912        -1.27755
H         25.84309        29.00263        -1.44027
H         25.82268        31.46300        -1.32077
H         25.79752        33.37719        -1.00959
H         25.82792        35.79019        -1.00714
H         25.80337        37.68779        -0.64628
H         25.80886        40.07405        -0.32241
H         25.80231        41.97046        -0.12489
H         25.76052        44.35915         0.38008
H         26.97553        46.46151         0.93431
H         29.14882        25.62131        -0.92489
H         29.09583        47.74204         0.94700
H         32.83664        23.47545        -0.61864
H         30.73768        24.68128        -0.59888
H         32.83898        49.88710         0.78591
H         30.74589        48.68020         1.04770
H         34.45469        22.55809        -0.81291
H         34.40276        50.79498         0.28806
H         36.56512        21.36137        -1.02520
H         36.48901        51.98766        -0.07026
H         40.34418        19.16345        -0.61638
H         38.20571        20.33195        -0.77178
H         40.29414        54.13804         0.04515
H         38.15141        52.92819         0.23343
H         42.77271        19.14658        -0.39837
H         42.72614        54.12139        -0.54147
H         44.88564        20.31852         0.05320
H         44.86682        52.91206        -0.43842
H         48.62238        22.47438         0.36180
H         46.52868        21.26174         0.28419
H         48.59573        50.75713        -0.09673
H         46.47991        51.93681         0.17313
H         50.24099        23.42324         0.66937
H         50.22631        49.85166        -0.46702
H         52.33257        24.65927         0.71368
H         52.32347        48.64725        -0.59440
H         56.06115        26.84195         0.41825
H         53.92522        25.61080         0.30876
H         56.07259        46.45011        -0.64835
H         53.96720        47.70439        -0.64263
H         57.32516        28.99837         0.28287
H         57.30232        31.45413         0.41410
H         57.33916        33.35544         1.00268
H         57.28290        35.79482         0.89589
H         57.28355        37.57812        -0.21492
H         57.24811        40.00107        -0.48628
H         57.30057        41.88638        -0.08521
H         57.29241        44.33437        -0.35027
