         598
 CSIRO Nanostructure Databank - Neutral Graphene Oxide Data Set
C         22.91646        69.88426         1.51023
C         22.89937        71.35950         1.16305
C         21.76057        72.04569         0.87370
C         22.92965        74.21024         0.81728
C         21.78013        73.48274         0.72389
C         25.35997        65.55135         0.64551
C         25.28975        67.01321         0.46415
C         24.13394        67.77026         0.95545
C         25.41546        69.85341         0.93345
C         24.16577        69.13750         1.05812
C         25.43654        71.31045         1.19271
C         24.16821        72.10170         1.29077
C         25.40127        74.23490         0.91152
C         24.21150        73.56144         1.00093
C         27.77538        61.25089         0.41188
C         27.74557        62.65606         0.59832
C         26.56308        63.39868         0.62122
C         27.83982        65.54009         0.42842
C         26.53658        64.83595         0.59143
C         27.90157        67.04444         0.32008
C         26.61340        67.79957         0.30671
C         27.90307        69.88852         0.92676
C         26.62433        69.20592         0.71762
C         27.92034        71.26563         1.01498
C         26.67780        72.02902         0.78070
C         27.99092        74.20097         0.93957
C         26.69377        73.52620         0.76357
C         30.33216        57.03910        -0.07578
C         30.25587        58.44676        -0.04507
C         29.03828        59.14250         0.12918
C         30.24800        61.29187         0.23199
C         28.98878        60.55046         0.25328
C         30.29065        62.62806         0.59358
C         29.03847        63.33473         0.86672
C         30.36359        65.56561         0.73466
C         29.07516        64.84258         0.88462
C         30.36509        66.99711         0.76137
C         29.14599        67.73924         0.72500
C         30.40101        69.79979         1.14583
C         29.15258        69.12724         0.96216
C         30.41853        71.24414         1.44029
C         29.12410        72.02481         1.36272
C         30.44111        74.13219         1.19471
C         29.16848        73.49546         1.14257
C         32.84651        52.84994        -0.21073
C         32.81704        54.23979        -0.25592
C         31.60514        54.95367        -0.20159
C         32.78760        57.11705        -0.45010
C         31.56349        56.36475        -0.22130
C         32.71722        58.51537        -0.53403
C         31.48022        59.20078        -0.23933
C         32.65347        61.36404        -0.43437
C         31.45073        60.58372        -0.12810
C         32.73166        62.79089         0.03368
C         31.59821        63.33574         0.88793
C         32.80253        65.54569         0.77149
C         31.56115        64.85247         0.76625
C         32.81901        66.94636         0.81746
C         31.60907        67.68776         0.86735
C         32.88607        69.83015         1.18945
C         31.62973        69.11497         1.04062
C         32.87005        71.25821         1.31716
C         31.68127        71.98377         1.31829
C         32.90431        74.12602         1.19302
C         31.66648        73.43002         1.27547
C         35.47574        48.77282         0.59601
C         35.36386        50.06701         0.07676
C         34.12827        50.77617         0.06679
C         35.29516        52.82945        -0.65115
C         34.08106        52.12951        -0.26023
C         35.30167        54.24478        -0.72512
C         34.12573        54.98917        -0.13589
C         35.21168        57.08661        -0.94665
C         34.04866        56.42588        -0.57569
C         35.11598        58.52893        -1.25783
C         33.90499        59.28187        -0.84733
C         35.10743        61.49158        -0.94940
C         33.89912        60.65862        -0.75936
C         35.20793        62.81722        -0.27109
C         34.06674        63.40636         0.21467
C         35.39097        65.46567         0.82699
C         34.07254        64.75859         0.80541
C         35.37979        66.95228         0.70584
C         34.09110        67.70032         0.73331
C         35.38102        69.78826         1.14194
C         34.12631        69.13719         1.08463
C         35.43414        71.23157         1.42454
C         34.12856        71.99900         1.51226
C         35.37922        74.10356         1.13644
C         34.14351        73.45733         1.26613
C         38.13148        44.79720         1.65515
C         38.07294        46.13775         1.22803
C         36.84016        46.83098         1.22972
C         37.91486        48.76706         0.15970
C         36.73300        48.11737         0.67991
C         37.76400        50.00196        -0.49432
C         36.53414        50.71177        -0.46470
C         37.70790        52.76431        -1.21485
C         36.48374        52.07345        -0.87052
C         37.65482        54.21706        -1.50811
C         36.44982        54.96458        -1.12577
C         37.70731        57.09338        -1.38508
C         36.46976        56.38773        -1.16355
C         37.68432        58.57067        -1.24583
C         36.38935        59.29481        -1.47854
C         37.70452        61.39599        -0.92681
C         36.37360        60.78643        -1.31862
C         37.68353        62.89566        -0.76400
C         36.51020        63.48854        -0.21415
C         37.84597        65.48075         0.34871
C         36.60386        64.79965         0.30170
C         37.93018        66.86014         0.91800
C         36.63815        67.64320         1.08898
C         37.86287        69.80129         0.93503
C         36.63689        69.11430         1.02205
C         37.86046        71.25094         0.90185
C         36.66252        71.96795         1.10816
C         37.83058        74.09334         0.83139
C         36.62451        73.39723         1.05294
C         40.36376        40.41847         1.91924
C         40.37536        41.78532         1.50809
C         39.27041        42.60502         1.76522
C         40.46688        44.56935         0.91952
C         39.29085        43.99075         1.46078
C         40.58277        46.07493         0.87679
C         39.26581        46.81361         0.76086
C         40.42564        48.80016        -0.25079
C         39.20570        48.12667         0.31418
C         40.16944        49.87754        -1.29042
C         38.90631        50.63665        -1.17089
C         40.17492        52.86193        -0.87955
C         38.91475        52.10496        -1.26844
C         40.23587        54.28083        -1.41067
C         38.96656        54.98073        -1.69529
C         40.21809        57.14827        -1.73206
C         38.95269        56.45351        -1.56687
C         40.16825        58.61564        -1.83874
C         38.95827        59.34500        -1.39637
C         40.02735        61.63429        -2.06065
C         38.75122        60.80138        -1.90102
C         40.08118        63.12129        -1.63836
C         38.91116        63.57949        -0.77544
C         40.33035        65.42464         0.09018
C         38.99073        64.86204        -0.18831
C         40.38962        66.87569         0.56888
C         39.15072        67.65775         0.73626
C         40.33023        69.83975         0.67353
C         39.12230        69.07719         0.79921
C         40.31423        71.26865         0.60159
C         39.07316        71.97229         0.70990
C         40.27368        74.11998         0.49880
C         39.05910        73.40657         0.68120
C         42.73283        36.17863         2.69392
C         42.65809        37.45830         2.14916
C         41.47778        38.24090         2.15092
C         42.56112        40.08244         0.83797
C         41.45213        39.57840         1.69311
C         42.64998        41.52965         0.52411
C         41.54200        42.34714         0.86287
C         42.74756        44.30149        -0.03319
C         41.58106        43.75035         0.59324
C         42.71397        45.70858        -0.41593
C         41.59371        46.53432        -0.13877
C         42.61144        48.41662        -1.31082
C         41.54067        47.86140        -0.58711
C         42.69905        49.92028        -1.56564
C         41.45450        50.58771        -0.93257
C         42.64242        52.78711        -0.93316
C         41.47462        52.09256        -0.99115
C         42.63230        54.27887        -0.90453
C         41.40508        55.00049        -1.36086
C         42.78157        57.04603        -1.77696
C         41.44524        56.42547        -1.69428
C         42.99953        58.37028        -2.35546
C         41.10155        59.38301        -2.47766
C         42.65822        61.49227        -2.35752
C         41.26291        60.85932        -2.37441
C         42.65423        63.03827        -2.04414
C         41.46922        63.57632        -1.17654
C         42.82540        65.50444        -0.33091
C         41.53823        64.77242        -0.50846
C         42.84419        66.99476        -0.14253
C         41.68006        67.62436         0.50696
C         42.82280        69.87744         0.17043
C         41.63241        69.13586         0.61768
C         42.80177        71.33524         0.42581
C         41.51316        72.02863         0.47656
C         42.72795        74.21129         0.17633
C         41.50832        73.45360         0.39496
C         45.18428        33.44515         3.45380
C         43.98677        34.14064         3.33558
C         45.21073        36.05962         2.45921
C         43.97134        35.46278         2.82893
C         45.22391        37.43313         1.92519
C         43.91374        38.12639         1.71895
C         45.05315        39.80898         0.12756
C         43.79697        39.24400         0.73211
C         45.00789        41.23354        -0.37310
C         43.81574        42.08503        -0.05196
C         45.09584        44.07683        -0.91363
C         43.84424        43.47438        -0.36481
C         45.10018        45.54340        -1.23181
C         43.79235        46.26041        -1.13446
C         45.56961        48.60716        -1.48338
C         43.65204        47.55319        -1.64947
C         45.33742        49.98404        -1.09684
C         43.98195        50.56396        -0.98222
C         45.21382        52.81579        -0.73333
C         43.93580        52.08287        -0.68970
C         45.23112        54.25137        -0.93492
C         43.94536        55.00659        -0.87816
C         45.20843        57.15359        -1.26720
C         43.93143        56.40932        -1.34837
C         45.25606        58.64132        -1.51061
C         44.02782        59.24137        -2.08604
C         45.33080        61.50437        -2.41285
C         43.98329        60.70308        -2.46022
C         45.17544        62.77049        -1.50513
C         43.99261        63.45931        -1.45933
C         45.16297        65.69259        -1.32572
C         44.03565        64.83105        -0.85870
C         45.15798        67.16294        -1.04757
C         43.94714        67.76967        -0.42942
C         45.16433        69.99436        -0.64526
C         43.94378        69.21620        -0.26705
C         45.20435        71.46431        -0.39999
C         44.03081        72.14449         0.20974
C         45.21379        74.30342        -0.20045
C         43.97169        73.61613         0.03864
C         46.39505        34.04042         3.07589
C         47.75084        35.98513         2.23361
C         46.41775        35.34958         2.57116
C         47.65940        37.30463         1.49220
C         46.44329        37.92297         1.25690
C         47.63284        39.90067         0.20659
C         46.37874        39.13837         0.41211
C         47.61562        41.16693        -0.32877
C         46.35652        41.89260        -0.66661
C         47.57921        44.06109        -0.64786
C         46.39789        43.37667        -0.67021
C         47.58892        45.52854        -0.44256
C         46.33209        46.31290        -0.77878
C         47.57378        48.41111        -0.02538
C         46.45402        47.79491        -0.84560
C         47.62872        49.94033        -0.15678
C         46.41301        50.67666        -0.56218
C         47.70511        52.76953        -0.77083
C         46.42230        52.11511        -0.59398
C         47.68643        54.12288        -1.42960
C         46.41989        54.90353        -1.15424
C         47.74133        57.04075        -1.74325
C         46.44093        56.34117        -1.50697
C         47.76576        58.53346        -1.71682
C         46.56127        59.29354        -1.80695
C         47.89947        61.22903        -2.39878
C         46.59716        60.64706        -2.18457
C         47.56349        62.90386        -0.68339
C         46.41559        63.50160        -1.16463
C         47.70428        65.75081        -1.19913
C         46.45892        64.96686        -1.48200
C         47.67404        67.19683        -0.89793
C         46.44979        67.88617        -0.89187
C         47.68149        69.98817        -0.69633
C         46.46260        69.28026        -0.71903
C         47.67113        71.47125        -0.74129
C         46.50807        72.15245        -0.06418
C         47.70103        74.34064        -0.36270
C         46.45621        73.65664        -0.27267
C         48.86598        37.93674         1.09316
C         50.11129        39.91814         0.37690
C         48.88761        39.23601         0.54625
C         50.15675        41.24646        -0.09666
C         48.90016        41.85932        -0.57453
C         50.12394        44.13166        -0.46675
C         48.88929        43.38142        -0.74237
C         50.10256        45.56459        -0.44731
C         48.87977        46.25001        -0.43834
C         50.16143        48.46575        -0.60886
C         48.85282        47.72115        -0.52519
C         50.19358        49.92283        -0.36692
C         48.93568        50.68142        -0.22887
C         50.18292        52.77064        -0.81990
C         48.91014        52.09779        -0.65809
C         50.20642        54.17064        -1.03579
C         48.96708        54.90843        -1.23500
C         50.27806        56.95160        -1.60189
C         48.98683        56.25704        -1.49312
C         50.28160        58.46808        -1.62135
C         48.99178        59.21749        -1.62318
C         50.24273        61.32765        -1.19587
C         49.04622        60.61869        -1.77998
C         50.16540        62.72111        -0.59918
C         48.90349        63.50444        -0.86044
C         49.95067        65.71724         0.00438
C         48.96655        64.99982        -0.90501
C         50.14787        67.10855        -0.59010
C         48.89324        67.88767        -0.75417
C         50.17622        70.04173        -0.59312
C         48.91756        69.30150        -0.71166
C         50.20934        71.45994        -0.61767
C         48.96075        72.22651        -0.77488
C         50.19668        74.33258        -0.39925
C         48.95040        73.67911        -0.45674
C         51.33358        42.00172        -0.09396
C         52.54765        44.15082        -0.11205
C         51.34244        43.42200        -0.27394
C         52.58016        45.56013        -0.18356
C         51.35945        46.29385        -0.38658
C         52.66038        48.40342        -0.47482
C         51.41908        47.69591        -0.48910
C         52.61901        49.83301        -0.64774
C         51.38557        50.59172        -0.52535
C         52.64720        52.71730        -0.76015
C         51.41139        52.04255        -0.68317
C         52.68285        54.14143        -0.84892
C         51.45586        54.85811        -1.00646
C         52.71217        56.96953        -1.01441
C         51.50944        56.26520        -1.19064
C         52.67883        58.41384        -0.88513
C         51.48788        59.10242        -1.09964
C         52.52042        61.14543        -0.01125
C         51.31879        60.46458        -0.60210
C         52.50146        62.58927         0.31647
C         51.21688        63.34346         0.30032
C         52.44777        65.68312         0.58671
C         51.19524        64.89325         0.42658
C         52.44851        67.15327         0.45228
C         51.39001        67.86632        -0.30693
C         52.56878        70.04766        -0.06609
C         51.37763        69.34606        -0.31799
C         52.62304        71.45397        -0.21636
C         51.41737        72.16716        -0.43843
C         52.68267        74.28348        -0.41728
C         51.43509        73.62614        -0.44041
C         53.78467        46.28006         0.01080
C         55.11869        48.31069         0.24209
C         53.87543        47.67590        -0.13896
C         55.51934        49.54922        -0.25996
C         53.77382        50.57161        -0.92395
C         55.15305        52.60100        -0.58511
C         53.89799        51.98042        -0.74815
C         55.23231        54.08671        -0.88524
C         53.91720        54.82787        -0.79021
C         55.14446        56.93879        -0.46661
C         53.93537        56.24354        -0.77604
C         55.19681        58.43344        -0.65133
C         53.86724        59.12202        -0.44702
C         55.03332        61.19185         0.25488
C         53.82166        60.45071        -0.06425
C         54.96135        62.52766         0.70781
C         53.63165        63.03209         0.95295
C         54.93204        65.73108         0.95183
C         53.60959        65.19300         1.15780
C         54.99998        67.11769         0.70541
C         53.73957        67.88378         0.68645
C         55.10523        70.01608         0.17229
C         53.78377        69.34954         0.39498
C         55.08455        71.41002        -0.29022
C         53.90233        72.13522        -0.26779
C         55.17272        74.24365        -0.38829
C         53.92367        73.58534        -0.39959
C         56.41812        50.52893         0.21456
C         57.50714        52.69239         0.16101
C         56.35249        51.91071        -0.14437
C         57.54122        54.10168         0.14589
C         56.35032        54.82673        -0.20019
C         57.42107        56.92358         0.64292
C         56.29881        56.21903        -0.08572
C         57.49707        58.40964         0.39117
C         56.34360        59.10798         0.05773
C         57.44321        61.24066         0.65777
C         56.28556        60.51498         0.27452
C         57.36458        62.65750         0.81412
C         56.13311        63.35455         0.88704
C         57.32835        65.53619         0.85245
C         56.12148        64.85592         0.95283
C         57.41726        66.95289         0.43408
C         56.21881        67.79217         0.40071
C         57.58207        69.83785         0.02792
C         56.32687        69.17546         0.12634
C         57.65880        71.27095        -0.36763
C         56.36739        72.06984        -0.55613
C         57.65611        74.14993        -0.26834
C         56.40899        73.53778        -0.40921
C         58.73961        54.81773         0.43403
C         59.92189        56.95434         0.78299
C         58.75359        56.21848         0.55293
C         59.92661        58.38107         0.92071
C         58.69098        59.11504         0.73033
C         59.90742        61.22743         1.09217
C         58.68985        60.53169         0.79981
C         59.90548        62.64566         1.21001
C         58.65869        63.36207         0.84933
C         59.80108        65.57400         1.47254
C         58.63741        64.84171         0.86857
C         59.87660        67.03458         1.19916
C         58.74721        67.68667         0.47608
C         59.99005        69.83326         0.57284
C         58.76121        69.15380         0.39472
C         60.05987        71.22426         0.21742
C         58.91962        72.01029        -0.14103
C         60.04978        74.26504         0.16148
C         58.90835        73.45144        -0.15971
C         61.11150        59.08451         1.17616
C         62.32626        61.23652         1.49064
C         61.13355        60.50749         1.27044
C         62.32493        62.64903         1.58856
C         61.07509        63.35073         1.47973
C         62.33551        65.55459         1.58199
C         61.05506        64.80638         1.89981
C         62.36262        66.96662         1.42206
C         61.17261        67.73327         1.21376
C         62.45749        69.80000         1.03052
C         61.20261        69.11218         0.92488
C         62.53410        71.19865         0.66810
C         61.36928        71.73807         0.05552
C         62.60671        74.27203         0.54236
C         61.38132        73.84243         0.00989
C         63.52711        63.39721         1.73160
C         64.79584        65.52400         1.65503
C         63.55758        64.82127         1.66666
C         64.85288        66.92799         1.57192
C         63.61566        67.66144         1.43050
C         64.88400        69.79704         1.56421
C         63.62795        69.06865         1.32505
C         64.91435        71.30384         1.30072
C         63.70872        71.97548         0.77336
C         65.03591        74.03608         0.68907
C         63.77062        73.41777         0.60431
C         66.09151        67.63259         1.56500
C         67.36323        69.75349         1.47529
C         66.15708        69.04180         1.52991
C         67.41569        71.17226         1.27677
C         66.22539        71.92799         1.10475
C         67.52599        73.95670         0.71065
C         66.26379        73.31576         0.81093
C         68.65712        71.85152         1.15383
C         68.69806        73.21955         0.88247
O         35.63916        61.50286        -2.33066
O         38.18767        54.50092        -2.84953
O         34.81787        67.42619        -0.55265
O         44.69085        48.07101        -2.44073
O         50.81964        62.44008        -1.90661
O         39.82553        63.90173        -2.78613
O         51.15636        67.24113        -1.62752
O         61.54138        72.73245        -0.87932
O         53.54369        64.03086         1.91456
O         39.36267        49.89044        -2.45652
O         48.22881        50.50523         1.06664
O         43.80933        51.08099         0.36676
O         54.46329        70.00300         1.52247
O         34.84277        71.60002         2.72856
O         44.86352        66.62705        -2.39660
O         59.39877        66.51969         2.51720
O         40.47629        65.74095         1.50960
O         49.26985        64.25857        -2.08670
O         34.83370        64.92128         2.06023
O         28.99886        64.11118         2.14602
O         44.74090        38.49286         2.88133
O         37.29344        67.05431         2.23878
O         26.64791        72.69397        -0.52273
O         43.80641        64.85427         0.58963
O         24.93078        71.71575         2.50564
O         44.98495        70.97980        -1.74711
O         46.95146        56.52145        -2.89748
O         48.99996        42.47570        -1.89409
O         42.04093        58.76107        -3.29402
O         45.62334        38.88770        -0.84403
O         42.76475        39.12751        -0.28048
O         43.17689        54.80168         0.36051
O         48.15733        71.98701        -2.00472
O         38.03471        61.09944         0.39571
O         32.36695        62.52214        -1.34146
O         46.63135        45.89825         0.60711
O         28.06892        66.18450        -0.86038
O         45.22243        58.10395        -0.13458
O         40.49137        61.52142        -3.44571
O         58.30483        67.06100        -0.75894
O         47.25172        65.45912        -2.58230
O         41.21998        49.96654         0.46068
O         41.94464        68.28621         1.78429
O         45.12781        44.58518        -2.31944
O         58.92249        64.16208        -0.39681
O         25.77788        67.50244        -0.83830
O         43.25820        61.12010        -3.64201
O         49.33938        48.19255        -1.82952
O         43.72778        71.69223         1.57156
O         35.63278        58.82458        -2.61551
O         38.45789        59.04454        -0.07229
O         45.51394        41.34635        -1.73037
O         57.08871        71.52117        -1.71306
O         52.77261        67.70655         1.78074
O         29.67417        71.61670         2.66422
O         64.76228        70.75098         2.66591
O         51.47828        60.50510         0.85961
O         54.86544        49.91120        -1.46849
O         50.81084        63.98911         1.53249
O         50.45045        57.70614        -2.86089
O         45.52436        62.08555        -3.72231
H         44.62330        62.24138        -4.10766
O         61.02196        64.73326         3.36222
H         60.61295        65.57629         3.67203
O         57.03941        56.82659         2.06558
H         57.77955        57.19508         2.59373
O         47.42228        48.10602         1.36825
H         47.71164        48.89868         1.87644
O         42.47577        63.72465        -3.29460
H         41.48808        63.78297        -3.45710
O         48.07805        62.28763        -3.18117
H         47.21356        62.58203        -3.56769
O         47.52712        61.81423         0.13865
H         46.59922        61.53938         0.28880
O         21.74418        69.22903         1.02920
H         21.78002        69.20810         0.05110
O         31.92697        63.02739         2.26960
H         31.19607        63.37092         2.82918
O         47.64170        53.83687        -2.87403
H         47.50762        54.71098        -3.32012
O         39.99258        53.01596         0.58148
H         40.40826        52.24175         1.02299
O         48.50302        36.17150         3.44841
H         47.97717        36.74255         4.04565
O         46.72752        71.92523         1.35804
H         45.88745        72.10458         1.83679
O         49.19219        65.96124         1.21890
H         49.44328        65.26789         1.87387
O         38.13896        60.67928        -3.18271
H         38.74968        61.06192        -3.85686
O         34.40384        55.05012         1.31232
H         34.45369        54.12622         1.63901
O         42.67103        50.18833        -2.97595
H         43.29799        49.57331        -3.41571
O         55.58267        54.12919        -2.33096
H         54.89442        53.62291        -2.81408
O         55.50664        58.61859        -2.08417
H         54.78558        58.19959        -2.60160
O         41.15691        46.44956         2.18145
H         40.50924        46.19158         2.87126
H         22.90887        75.30259         0.69248
H         25.39630        75.32672         0.76864
H         28.02547        75.29904         0.86950
H         30.47665        75.22768         1.09571
H         32.89158        75.21837         1.06267
H         35.39753        75.19726         1.01704
H         37.82054        75.19221         0.78510
H         40.24399        75.21869         0.45213
H         42.63509        75.30456         0.08833
H         45.18190        75.39959        -0.30550
H         47.69543        75.44169        -0.31802
H         50.22191        75.42716        -0.28062
H         52.70087        75.38426        -0.43338
H         55.19654        75.34388        -0.35790
H         57.68805        75.24764        -0.18799
H         59.85757        75.27117         0.56256
H         62.70969        75.29761         0.92624
H         65.08820        75.13115         0.59127
H         67.57226        75.03410         0.49928
H         22.87922        69.81949         2.63455
H         20.80357        71.51103         0.79027
H         20.82554        73.99517         0.53859
H         24.41610        65.01470         0.82799
H         23.21637        67.22672         1.22735
H         26.82504        60.69895         0.35668
H         25.60192        62.86713         0.55085
H         29.41419        56.44661         0.05631
H         28.10147        58.56894         0.19628
H         31.90579        52.28513        -0.12570
H         30.65990        54.39331        -0.13325
H         34.58093        48.26114         0.98019
H         33.21208        50.26526         0.39777
H         37.21758        44.32336         2.04230
H         35.94102        46.32744         1.61419
H         39.49116        40.04076         2.47267
H         38.37036        42.17067         2.22449
H         41.80999        35.68937         3.04023
H         40.57449        37.83198         2.62880
H         45.18408        32.41988         3.84914
H         43.04001        33.66735         3.63247
H         47.33806        33.48701         3.18553
H         48.34819        35.27012         1.60772
H         49.82054        37.44035         1.31934
H         51.04529        39.42583         0.68589
H         52.27645        41.51113         0.19074
H         53.48335        43.60191         0.07030
H         54.69539        45.71584         0.26071
H         55.74459        47.79394         0.98487
H         57.21125        50.22600         0.91499
H         58.41546        52.15758         0.47790
H         59.68117        54.25609         0.53504
H         60.88500        56.42335         0.83947
H         62.05261        58.52759         1.29799
H         63.27876        60.69314         1.58060
H         64.48139        62.85429         1.80794
H         65.73271        64.95158         1.72971
H         67.02847        67.05648         1.59725
H         68.31209        69.19752         1.50934
H         69.59248        71.28674         1.27375
H         69.67079        73.72443         0.80008
