         234
 CSIRO Nanostructure Databank - Neutral Graphene Oxide Data Set
C          1.88707         2.16144         2.03458
C          1.78591         3.51507         1.88166
C          3.09298         1.46876         1.74388
C          3.00490         4.34655         1.57224
C          1.64686         6.45242         1.40918
C          1.49354         7.84176         1.09671
C          2.68453         5.68972         0.94121
C          2.43588         8.53312         0.37367
C          1.17634        10.71799         0.37949
C          1.10564        12.06527         0.23263
C          2.39945         9.98291         0.14953
C          2.19689        12.84207        -0.36834
C          1.16473        15.00559         0.29968
C          1.20300        16.37714         0.66241
C          2.25319        14.31475        -0.19740
C          2.38454        17.09090         0.61381
C          2.51410        18.42093         1.14566
C          4.16279         2.12437         1.10535
C          4.05646         3.55170         0.82331
C          5.31896         1.41161         0.72394
C          4.99323         4.17348         0.02531
C          3.61372         6.26287        -0.04368
C          3.50084         7.77427        -0.30907
C          4.90781         5.58411        -0.30027
C          4.72706         8.52147        -0.73172
C          3.55020        10.65982        -0.21262
C          3.53438        12.07736        -0.59631
C          4.86762         9.92824        -0.14857
C          4.79866        12.82858        -0.64789
C          3.48029        15.04187        -0.58000
C          3.54990        16.49436        -0.06198
C          4.76529        14.29673        -1.02796
C          4.85548        17.09942         0.22514
C          3.71124        19.07670         1.13259
C          4.92882        18.41315         0.71723
C          6.33836         2.00286        -0.06905
C          6.10267         3.38559        -0.56085
C          7.48429         1.32094        -0.42812
C          7.28110         4.14338        -1.14914
C          6.00399         6.27416        -0.79932
C          5.99300         7.74422        -0.99334
C          7.27434         5.61089        -0.99380
C          7.28018         8.46093        -0.88860
C          6.02861        10.70084        -0.71609
C          6.02443        12.11414        -0.73409
C          7.23604         9.94033        -1.05244
C          7.28676        12.84646        -0.83309
C          6.04735        14.96283        -0.54790
C          6.05816        16.29906         0.04442
C          7.28807        14.27262        -0.67581
C          7.38714        17.05384         0.11923
C          6.16669        19.11827         0.74573
C          7.36436        18.51912         0.33467
C          8.53844         1.92682        -1.32179
C          8.57911         3.43953        -1.19007
C          9.86657         1.27770        -1.05421
C          9.74050         4.14176        -1.16981
C          8.46280         6.31952        -0.98050
C          8.46558         7.76078        -0.87761
C          9.74437         5.62563        -1.27278
C          9.76256         8.45574        -0.64873
C          8.53910        10.70450        -1.08816
C          8.52306        12.17219        -0.90364
C          9.77373         9.97214        -0.67064
C          9.75273        12.85947        -0.90985
C          8.53733        14.96637        -0.63761
C          8.52341        16.47598        -0.69053
C          9.77074        14.28100        -0.77276
C          9.82550        17.12243        -0.29861
C          8.59192        19.20511         0.26632
C          9.82607        18.52858         0.04717
C         11.03751         1.97415        -0.86835
C         11.01896         3.46046        -0.87048
C         12.28401         1.30702        -0.66062
C         12.30614         4.21813        -0.92251
C         11.04958         6.38569        -1.31407
C         11.05687         7.79482        -0.85682
C         12.40064         5.65694        -1.44024
C         12.24681         8.49706        -0.68160
C         11.05965        10.65629        -0.77790
C         11.01865        12.10212        -1.10404
C         12.23137         9.94797        -0.60688
C         12.30607        12.84691        -1.18800
C         11.01512        15.01922        -0.76045
C         11.00877        16.40073        -0.40777
C         12.27832        14.34465        -1.10067
C         12.27189        17.07566        -0.02060
C         11.04210        19.22363         0.19496
C         12.30125        18.55417         0.16944
C         13.51727         1.97934        -0.65534
C         13.56524         3.41863        -0.99002
C         14.73505         1.32234        -0.40637
C         14.84405         4.20307        -0.72136
C         13.57531         6.38901        -0.79538
C         13.52834         7.79053        -0.63135
C         14.76753         5.67604        -0.52635
C         14.74747         8.50727        -0.38383
C         13.50957        10.68506        -0.43819
C         13.55915        12.15780        -0.70345
C         14.78044         9.93355        -0.38663
C         14.89683        12.82316        -1.04018
C         13.61355        15.02855        -0.86207
C         13.56484        16.38229        -0.23489
C         14.85711        14.28410        -0.65671
C         14.80805        17.22335        -0.39729
C         13.49882        19.20243         0.39835
C         14.80264        18.44965         0.54850
C         15.92971         2.03987        -0.11803
C         15.93997         3.45273        -0.12158
C         17.14239         1.31861         0.18234
C         16.99642         4.18758         0.57021
C         15.94031         6.35937        -0.11496
C         15.96102         7.78470        -0.16486
C         17.11365         5.65317         0.35049
C         17.19804         8.48425        -0.00665
C         15.99615        10.63297        -0.27137
C         16.07066        12.09035        -0.41752
C         17.20011         9.89152        -0.08867
C         17.21738        12.78787        -0.10852
C         16.04598        14.99227        -0.34433
C         16.04807        16.39594        -0.23663
C         17.29122        14.23797        -0.17179
C         17.29593        17.15499        -0.21860
C         16.04560        19.25832         0.29356
C         17.26839        18.61560         0.10006
C         18.29184         1.95966         0.58942
C         18.22438         3.37638         0.99485
C         19.57207         1.29560         0.63695
C         19.49517         4.11418         1.26525
C         18.30328         6.33653         0.59069
C         18.41126         7.74800         0.29606
C         19.50836         5.64162         1.11278
C         19.64920         8.40883         0.42108
C         18.46823        10.63113        -0.06188
C         18.41737        12.05475         0.45526
C         19.75023         9.85437         0.15853
C         19.74120        12.77689         0.30285
C         18.50180        14.89355         0.01427
C         18.56586        16.36447        -0.10460
C         19.76208        14.18579         0.19478
C         19.78320        17.06685         0.39679
C         18.49617        19.29893         0.16392
C         19.75953        18.58583         0.40528
C         20.73562         1.97383         0.87253
C         20.76873         3.39413         1.10676
C         21.95537         4.10844         1.14207
C         20.82659         6.28969         0.99799
C         20.84857         7.73306         0.83755
C         21.97671         5.52674         1.12374
C         21.99259         8.47404         1.14690
C         20.93787        10.60016         0.60791
C         20.94755        12.04916         0.44587
C         22.01953         9.88535         1.08676
C         22.17189        12.75466         0.41275
C         21.00867        14.88909         0.21581
C         21.06561        16.35054         0.24788
C         22.19796        14.13501         0.30130
C         22.22621        17.09138         0.24913
C         21.05467        19.25142         0.24308
C         22.20870        18.52697         0.22175
O         18.14541        16.86783        -1.41850
O          3.25617        16.17514        -1.47960
O         12.96923        16.35328         1.09992
O         19.37489         4.98309         2.42174
O          2.60169        12.39118        -1.69005
O          6.96437        16.30443         1.25863
O          5.14618         8.30628        -2.08516
O          6.24615         3.57196        -2.01299
O         19.63922        17.75924         1.66699
O          7.91415        10.30546        -2.33373
O         14.45857         3.74839        -2.07417
O          9.66193         9.24572         0.59990
O         19.32516        10.33151        -1.18907
O         10.27985         6.16676        -2.55683
O         11.63403         4.06410         0.35705
O         11.70799        12.34909        -2.41663
O         13.43577        11.70166         0.66667
O         13.04074        14.96214        -2.22565
O          2.99909         6.80170        -1.26083
O         17.18144         3.70166         1.95104
O          3.61002         4.67555         2.87825
H          3.78534         3.82550         3.33576
O         14.80545        17.76412        -1.74448
H         14.96177        17.03002        -2.37578
O          8.17416         1.65144        -2.71122
H          7.34133         2.15363        -2.88390
O          8.23591        16.85643        -2.07809
H          8.93735        16.47425        -2.64711
O          4.80049        14.35261        -2.48353
H          4.28900        15.14839        -2.75721
O          5.19103         9.68681         1.26713
H          5.25468        10.55331         1.72179
O         14.89755        17.98987         1.92404
H         14.13005        17.38356         2.07701
O         12.73276         5.60002        -2.84117
H         11.89088         5.67817        -3.34894
O         15.04704        12.75516        -2.48725
H         14.36290        13.34618        -2.87971
O         18.19443        11.90752         1.89581
H         18.06929        12.80195         2.27734
H          1.01526         1.58288         2.37381
H          0.83895         4.01962         2.11880
H          3.15718         0.38742         1.92831
H          0.94938         6.03006         2.14634
H          0.66153         8.37650         1.57593
H          0.30353        10.17744         0.77021
H          0.19640        12.58566         0.56361
H          0.22561        14.46935         0.49114
H          0.30020        16.83949         1.08583
H          1.61459        18.91125         1.54578
H          5.41925         0.35661         1.01908
H          3.78297        20.10677         1.50985
H          7.61691         0.28217        -0.08991
H          6.16128        20.18290         1.02144
H          9.89550         0.17711        -1.06292
H          8.61710        20.27557         0.52067
H         12.27537         0.21488        -0.52485
H         11.01958        20.30501         0.39662
H         14.73738         0.22936        -0.28071
H         13.48784        20.28438         0.60431
H         17.16975         0.24038        -0.03483
H         16.02497        20.34836         0.44869
H         19.59989         0.21624         0.42850
H         18.49450        20.39495         0.27371
H         21.69455         1.43557         0.85029
H         22.91047         3.56685         1.08109
H         22.95943         6.01743         1.09017
H         22.89204         7.95776         1.50771
H         22.92711        10.40515         1.42347
H         23.12109        12.20548         0.47442
H         23.17011        14.64560         0.29963
H         23.20594        16.59779         0.18829
H         21.07519        20.34159         0.09987
H         23.17169        19.04748         0.12016
