         344
 CSIRO Nanostructure Databank - Neutral Graphene Oxide Data Set
C          1.26319         3.33563        -0.81810
C          0.08950         3.99788        -0.89949
C          1.13426         6.20479        -0.62281
C          0.03875         5.44962        -0.92790
C          1.13831         7.66950        -0.61733
C         -0.05700         8.39849        -0.74251
C          1.12985        10.52361        -0.70603
C         -0.05630         9.79728        -0.79971
C          1.17920        12.01956        -0.99419
C         -0.10972        12.78491        -0.81465
C          0.98765        14.80031         0.14748
C         -0.18158        14.05978        -0.40114
C          0.98933        16.31640         0.22777
C         -0.09596        17.12107        -0.34808
C          1.23210        19.19803        -0.21937
C         -0.00402        18.47601        -0.44611
C          1.28595        20.66696        -0.30476
C          0.25784        21.46516        -0.75608
C          1.35550        23.58298        -0.12781
C          0.33892        22.90119        -0.74626
C          1.40708        25.04492        -0.01538
C          0.26931        25.84516        -0.27331
C          1.43730        27.86997         0.42980
C          0.28905        27.22247        -0.05106
C          1.45978        29.29660         0.66592
C          3.74382         3.40580        -0.24528
C          2.55239         4.12247        -0.84046
C          3.64802         6.26369        -0.22304
C          2.36764         5.47018        -0.13973
C          3.62678         7.66717        -0.36704
C          2.36540         8.38252        -0.50291
C          3.59384        10.53155        -0.41855
C          2.36121         9.81291        -0.54057
C          3.58427        11.97779        -0.29591
C          2.37071        12.68378        -0.35797
C          3.57804        14.85165         0.14397
C          2.31809        14.08072         0.10743
C          3.60029        16.25686         0.30233
C          2.33950        17.04856         0.38234
C          3.72836        19.16557        -0.08734
C          2.38862        18.48092         0.03694
C          3.64842        20.61761         0.34159
C          2.49987        21.33149         0.17276
C          3.74255        23.48723         0.65827
C          2.40348        22.78120         0.61740
C          3.77465        24.90487         0.71872
C          2.59754        25.68740         0.41442
C          3.80785        27.74917         1.11457
C          2.64024        27.11195         0.64359
C          3.79721        29.18226         1.59274
C          2.54651        29.91720         1.17911
C          6.05035         3.37942         0.69983
C          4.83839         4.10191         0.13965
C          6.06715         6.28155         0.09612
C          4.85626         5.56981         0.02234
C          6.08388         7.67295        -0.16130
C          4.85900         8.37467        -0.36880
C          6.04732        10.52206        -0.26593
C          4.84332         9.82949        -0.37697
C          6.08540        11.95749         0.14379
C          4.79402        12.69182        -0.07240
C          6.02223        14.83203         0.00356
C          4.79474        14.11710         0.01507
C          6.03541        16.22320         0.16956
C          4.83028        16.94810         0.32859
C          6.17909        19.11667         0.32521
C          4.85413        18.42814         0.66574
C          6.23425        20.59033         0.58192
C          4.89928        21.29220         0.75278
C          6.15598        23.39175         1.15039
C          4.93186        22.75866         0.77825
C          6.00315        24.71853         1.58429
C          4.94420        25.54313         1.19999
C          6.35331        27.80276         1.56206
C          5.12565        27.03476         0.93985
C          6.25575        29.21241         0.99410
C          5.02628        29.83646         1.01873
C          8.53677         3.44790         0.43387
C          7.35776         4.11389         0.49401
C          8.55417         6.22158        -0.12706
C          7.34532         5.62600         0.58988
C          8.55922         7.72995        -0.02741
C          7.34991         8.38686        -0.16693
C          8.59147        10.58244        -0.25408
C          7.33548         9.82636        -0.60460
C          8.58993        11.97911        -0.30671
C          7.29211        12.66863        -0.43429
C          8.56146        14.86045        -0.15346
C          7.28257        14.16317        -0.35059
C          8.52980        16.26160         0.05204
C          7.29741        16.91623         0.10361
C          8.50073        18.89997        -0.54960
C          7.27782        18.35332         0.00945
C          8.51311        21.02288        -0.38967
C          7.41516        21.48229         0.36950
C          8.73319        23.54110         0.73401
C          7.47233        22.79882         0.89072
C          8.88455        24.97419         0.84667
C          7.88583        25.83044         1.45032
C          8.90774        27.89652         0.75969
C          7.66913        27.13998         1.15588
C          8.65184        29.29357         0.28015
C          7.37969        29.86762         0.40839
C         11.00334         3.46365         0.72787
C          9.83338         4.13377         0.46780
C         11.03045         6.29442         0.32417
C          9.84261         5.56744         0.29016
C         11.02383         7.73589         0.19181
C          9.80872         8.43738         0.03395
C         11.01677        10.61256         0.01892
C          9.81244         9.88599        -0.05550
C         11.03927        12.02039        -0.16348
C          9.79551        12.72666        -0.27996
C         11.02236        14.90641        -0.28228
C          9.78081        14.16211        -0.23103
C         11.04715        16.28405        -0.19058
C          9.82356        17.03229         0.28605
C         10.97098        19.14580        -0.72589
C          9.74796        18.40011        -0.34710
C         10.98288        20.71078        -0.67147
C          9.80817        21.49755        -0.22322
C         11.11885        23.52499        -0.05354
C          9.90286        22.83736         0.26549
C         11.08566        24.92713        -0.18285
C          9.96201        25.65149         0.22155
C         11.11903        27.86299        -0.43768
C          9.80507        27.11638        -0.20724
C         11.07572        29.33130        -0.27935
C          9.80220        29.97700        -0.12353
C         13.52554         3.50618         0.51449
C         12.28734         4.18872         1.02229
C         13.47660         6.33596         0.52135
C         12.28215         5.63947         0.60135
C         13.47662         7.73705         0.21629
C         12.27522         8.43192         0.19091
C         13.53880        10.63089         0.06360
C         12.27419         9.91703         0.44681
C         13.51206        12.04005        -0.10860
C         12.27154        12.72488        -0.22524
C         13.52872        14.90722        -0.36694
C         12.26469        14.15586        -0.69454
C         13.51851        16.31666        -0.37976
C         12.27082        17.03880        -0.39164
C         13.49793        19.16826        -0.66921
C         12.26812        18.43882        -0.56125
C         13.47178        20.61571        -0.70182
C         12.30199        21.35926        -0.53519
C         13.53344        23.50998        -0.54812
C         12.32671        22.79514        -0.40517
C         13.53050        24.94539        -0.60450
C         12.20316        25.60746        -0.92428
C         13.51392        27.66943        -1.11845
C         12.22835        27.11230        -0.77966
C         13.52410        29.76301        -0.49598
C         12.20748        30.15539        -0.11778
C         15.97673         3.52503         0.44440
C         14.74675         4.17513         0.58168
C         16.01799         6.35205         0.53903
C         14.74771         5.64898         0.98247
C         16.01603         7.74592         0.17074
C         14.73930         8.42828        -0.24015
C         15.95973        10.63214        -0.17523
C         14.75042         9.92915        -0.03745
C         15.97598        12.05244        -0.16433
C         14.74834        12.76108        -0.19619
C         15.97718        14.90882        -0.12469
C         14.74646        14.19645        -0.25505
C         15.97709        16.33445        -0.19376
C         14.75481        17.04191        -0.36658
C         16.00652        19.14798        -0.57219
C         14.74132        18.46090        -0.56195
C         16.02700        20.56764        -0.98788
C         14.72941        21.34503        -0.98645
C         15.97696        23.50785        -0.73072
C         14.78902        22.81335        -0.76820
C         15.99246        24.93187        -0.21798
C         14.72033        25.65959        -0.56050
C         15.99637        27.89329        -0.97887
C         14.72706        27.06453        -0.84037
C         15.95497        29.26385        -0.25895
C         14.75048        29.98431         0.09723
C         18.49818         3.48236         0.70544
C         17.20789         4.20248         0.99100
C         18.41711         6.25617        -0.09274
C         17.19588         5.64160         0.53171
C         18.45750         7.75508         0.04936
C         17.22200         8.44089         0.00080
C         18.48714        10.62943        -0.10693
C         17.22628         9.87884        -0.47797
C         18.47450        12.03795        -0.00456
C         17.21989        12.78228        -0.07732
C         18.43038        14.92208         0.46392
C         17.19849        14.17471         0.02267
C         18.43612        16.38870         0.09691
C         17.22312        17.06608        -0.09811
C         18.42822        19.27820         0.11705
C         17.19517        18.49340        -0.26854
C         18.52423        20.66997        -0.46124
C         17.31728        21.32225        -0.96115
C         18.51992        23.57029        -0.55694
C         17.28188        22.85717        -0.92430
C         18.50522        24.99488        -0.47928
C         17.25279        25.71249        -0.53277
C         18.47452        27.82339        -0.44473
C         17.24254        27.09847        -0.60166
C         18.43224        29.23343        -0.20972
C         17.15968        29.87437        -0.00081
C         19.65784         4.13745         0.45263
C         20.88216         6.28525         0.21661
C         19.70244         5.56212         0.24734
C         20.88971         7.68755         0.05052
C         19.69972         8.44079        -0.00337
C         20.90767        10.63025         0.15844
C         19.70229         9.90602         0.00153
C         20.91329        12.01189         0.18367
C         19.70740        12.75424         0.12254
C         20.89488        14.93766         0.07657
C         19.71428        14.19219         0.16032
C         20.89768        16.33215         0.08355
C         19.69542        17.09413         0.08046
C         20.91788        19.26893         0.00869
C         19.71976        18.51069        -0.00208
C         20.91853        20.64742        -0.08005
C         19.71448        21.38360        -0.36837
C         20.94279        23.57884        -0.41456
C         19.72943        22.84562        -0.48831
C         20.94629        24.95885        -0.42123
C         19.73851        25.70139        -0.43787
C         20.90856        27.90818        -0.22793
C         19.72303        27.14620        -0.37749
C         20.85819        29.28958        -0.09067
C         19.62503        29.95078        -0.04310
O          7.01701        25.23702         2.38019
O          1.46348        16.78142         1.52148
O         13.54456        28.95385        -1.66235
O         15.30831        20.82497        -2.23596
O          5.63013        20.78799         1.91875
O          1.49236        14.18800         1.36892
O         17.48804        22.11516        -2.17324
O         10.86393        19.96306        -1.92487
O          8.29020        20.03035        -1.34460
O          7.13026        13.42591        -1.65146
O          9.13094        27.06158        -1.48809
H          9.73840        26.62768        -2.12626
O          6.35472        11.97135         1.60678
H          5.58115        11.56123         2.04965
O          5.41899        27.08203        -0.50043
H          4.64924        26.70638        -0.97856
O         14.73135         8.26396        -1.71097
H         15.48796         8.79976        -2.05869
O          4.53794        18.52869         2.07014
H          5.31666        18.24362         2.59031
O          1.94052        22.74148         2.00973
H          2.55925        22.16737         2.51016
O          6.25697        27.84450         2.99139
H          6.41058        26.92857         3.31702
O         16.15520        28.20217        -2.39345
H         15.34434        28.69081        -2.66304
O          3.85868        29.22589         3.05508
H          3.13943        28.65760         3.40086
O          8.37726         5.91179        -1.54485
H          9.11384         6.33139        -2.03730
O         11.94003        25.36876        -2.35363
H         12.09341        24.41441        -2.52632
O         18.24486        19.49905         1.58259
H         19.06694        19.92577         1.90855
O          6.12678         2.04358         0.20100
H          6.30246         2.08886        -0.76098
O         18.34354        14.91543         1.95175
H         19.09078        15.45909         2.28232
O          7.46906         5.97657         1.99879
H          6.65627         5.68075         2.45914
O          9.68701        28.01482         1.99300
H          9.12607        28.47067         2.65616
O         17.07517         4.18684         2.45105
H         16.25708         4.70823         2.67153
O         17.23405         9.76112        -1.95993
H         18.09379         9.35932        -2.21321
O          2.86097         4.40262        -2.23671
H          2.91300         3.54804        -2.71226
O          7.36151         9.75335        -2.08715
H          6.57381         9.23770        -2.36456
O         12.40806         4.19036         2.52004
H         11.57679         4.57933         2.86934
O         12.22624        14.07119        -2.17091
H         12.18224        14.98924        -2.51447
O          2.15060         5.18292         1.27502
H          1.92728         6.02691         1.71995
O         16.01473        24.79651         1.25410
H         16.01365        25.70097         1.63359
O         14.73261         5.67796         2.44596
H         13.93448         5.15211         2.72523
O         18.24795         6.03395        -1.56248
H         17.38318         6.43021        -1.80882
O          4.11668        19.14865        -1.49275
H          3.40659        19.58234        -2.01119
O         12.24767        10.00319         1.93316
H         11.40495         9.59812         2.23159
O          9.96303        17.20196         1.73494
H         10.08519        16.31281         2.12938
O          1.44415        12.10994        -2.44899
H          2.23500        11.55952        -2.63706
H          1.29747         2.23551        -0.84763
H         -0.86001         3.44691        -0.97297
H         -0.91517         5.91899        -1.20913
H         -1.01753         7.87064        -0.81319
H         -1.01575        10.31638        -0.93007
H         -1.02782        12.30553        -1.18621
H         -1.16134        14.56237        -0.38439
H         -1.01259        16.61609        -0.68661
H         -0.87550        19.03808        -0.81136
H         -0.65641        21.01443        -1.16789
H         -0.47407        23.45114        -1.24319
H         -0.66437        25.37593        -0.61267
H         -0.61943        27.81367        -0.23757
H          0.55484        29.87419         0.42155
H          3.75480         2.30477        -0.20073
H          2.51740        30.99998         1.37416
H          5.89613         3.29206         1.81548
H          4.91103        30.80661         0.50727
H          8.53589         2.34622         0.44807
H          7.23100        30.89604         0.03982
H         10.98636         2.37509         0.89098
H          9.75936        31.06785        -0.26978
H         13.49518         2.43309         0.27278
H         12.06102        31.13692         0.35999
H         16.00450         2.45508         0.18402
H         14.82589        30.72365         0.90963
H         18.50666         2.39261         0.85795
H         17.16625        30.90428         0.38977
H         20.60494         3.57754         0.39725
H         21.83983         5.76627         0.37175
H         21.86349         8.19419         0.02265
H         21.86289        10.09845         0.25813
H         21.87432        12.53046         0.29788
H         21.86222        14.42672        -0.02917
H         21.86635        16.84471         0.02393
H         21.88667        18.75728         0.09460
H         21.87954        21.17382        -0.01845
H         21.90570        23.05214        -0.38693
H         21.91159        25.48211        -0.40391
H         21.88640        27.40887        -0.20650
H         21.78966        29.86123         0.02472
H         19.58606        31.03440         0.13847
