         410
 CSIRO Nanostructure Databank - Neutral Graphene Oxide Data Set
C         28.00852        27.57768        -0.91299
C         28.00627        28.94212        -0.47115
C         26.81811        29.71687        -0.53962
C         28.02904        31.66955         0.29657
C         26.82916        31.02759        -0.12668
C         28.02126        33.08026         0.57953
C         26.79895        33.79729         0.72417
C         27.96282        35.93319         0.77227
C         26.76644        35.16644         0.85680
C         27.92719        37.38264         0.69671
C         26.71732        38.13233         0.97748
C         27.74126        40.30862         0.38358
C         26.63724        39.48871         0.90877
C         27.84121        41.77693         0.61571
C         26.72711        42.49189         1.07243
C         27.96479        44.59074         1.02951
C         26.77356        43.87118         1.26353
C         28.03897        45.98610         1.31341
C         30.36737        27.28210        -0.37502
C         29.14201        26.79266        -0.90196
C         30.33731        28.63413         0.20575
C         29.18812        29.53451         0.03809
C         30.50361        31.62216         0.66898
C         29.24888        30.92921         0.35832
C         30.49535        33.06017         0.73004
C         29.25639        33.78350         0.67971
C         30.38239        36.00869         0.45395
C         29.19939        35.23915         0.69171
C         30.34447        37.41259         0.24581
C         29.09558        38.09601         0.40218
C         30.30359        40.32671         0.19605
C         29.03577        39.54709         0.14662
C         30.23928        41.78218        -0.04191
C         29.06513        42.47788         0.31823
C         30.34061        44.63155         0.42815
C         29.12707        43.90981         0.54585
C         30.40995        46.00695         0.76030
C         29.22387        46.67064         1.19011
C         32.78664        24.40718        -0.57818
C         31.61451        25.11885        -0.59076
C         32.84584        27.19569        -0.16437
C         31.57907        26.53187        -0.34493
C         32.88599        28.60723         0.03849
C         31.67708        29.33020         0.45176
C         33.01246        31.25750         0.80588
C         31.69556        30.79553         0.64865
C         33.05017        33.45627         0.92287
C         31.67911        34.01113         1.06499
C         32.73751        35.98607        -0.19228
C         31.62294        35.33778         0.34463
C         32.74012        37.40409        -0.39217
C         31.54429        38.09666        -0.09326
C         32.76742        40.25854        -0.56081
C         31.57478        39.56463        -0.00604
C         32.75489        41.75111        -0.65170
C         31.46129        42.49164        -0.42487
C         32.86743        44.59925         0.07365
C         31.53859        43.98694        -0.14123
C         32.88920        45.93534         0.46039
C         31.67705        46.69721         0.65626
C         32.97708        48.78820         0.67089
C         31.76156        48.09643         0.76145
C         35.35027        22.88601        -0.28047
C         35.27614        24.31955        -0.33280
C         34.06529        25.04281        -0.39480
C         35.33042        27.18749        -0.30745
C         34.07397        26.47794        -0.28099
C         35.32863        28.62263        -0.39360
C         34.08065        29.31969        -0.18314
C         35.21749        31.54603        -0.38795
C         34.11741        30.69919         0.13573
C         35.19305        33.04925        -0.33077
C         34.05538        33.89317         0.14149
C         35.21284        35.90030        -0.98075
C         33.95796        35.21313        -0.51331
C         35.19529        37.39982        -1.25644
C         33.98242        38.11145        -0.66107
C         35.25903        40.23933        -0.73301
C         34.03905        39.50498        -0.59075
C         35.25846        41.69854        -0.63265
C         34.05419        42.45380        -0.51734
C         35.34926        44.49100        -0.09657
C         34.08895        43.83810        -0.17638
C         35.45402        45.89389         0.33737
C         34.17246        46.64190         0.64692
C         35.45648        48.78504         0.46295
C         34.19618        48.11070         0.60047
C         35.55973        50.16397         0.88256
C         37.86680        22.79411        -0.60558
C         36.52352        22.19196        -0.26892
C         37.79297        24.33471        -0.65091
C         36.57753        25.02748        -0.04318
C         37.78903        27.24184        -0.33795
C         36.56169        26.51179        -0.31202
C         37.77844        28.67996        -0.36142
C         36.52381        29.34460        -0.43914
C         37.75309        31.52709        -0.37644
C         36.50591        30.80577        -0.80603
C         37.74775        33.00378        -0.34276
C         36.49151        33.79377        -0.37749
C         37.70804        35.91424        -0.84751
C         36.52011        35.22676        -0.77668
C         37.74289        37.37134        -0.93729
C         36.50911        38.09720        -0.95415
C         37.74432        40.23532        -0.97184
C         36.47345        39.50172        -0.85942
C         37.75821        41.63912        -0.47870
C         36.49898        42.39399        -0.53902
C         37.82596        44.51133        -0.39797
C         36.55343        43.79102        -0.34083
C         37.80069        45.95278        -0.42764
C         36.65551        46.66565        -0.06057
C         37.76570        48.89941        -0.43728
C         36.61059        48.09818         0.01368
C         37.83574        50.38129        -0.01194
C         36.71088        50.87644         0.79179
C         40.33277        20.39240         1.12555
C         39.11146        20.99473         0.71702
C         40.23361        23.13736         0.34578
C         39.04130        22.28720         0.23695
C         40.32233        24.44037        -0.32414
C         39.05946        25.12717        -0.61378
C         40.26647        27.29051        -0.33581
C         39.04033        26.58096        -0.38084
C         40.24567        28.72627        -0.19257
C         38.99312        29.40992        -0.26242
C         40.18698        31.61975        -0.07501
C         38.94476        30.86316        -0.22779
C         40.23297        32.95631        -0.35728
C         39.00741        33.67776        -0.75482
C         40.27805        35.90155        -0.68113
C         39.00413        35.17335        -0.90003
C         40.24925        37.32451        -0.72048
C         39.00682        38.01988        -0.88655
C         40.32331        40.21304        -0.78489
C         39.05061        39.48602        -1.01728
C         40.33373        41.62864        -0.73031
C         39.08340        42.36446        -0.43119
C         40.30358        44.53517        -0.67737
C         39.04766        43.83241        -0.51708
C         40.30455        45.91427        -0.85076
C         39.02675        46.66524        -0.86880
C         40.31620        48.95003        -0.87237
C         39.01543        48.17461        -0.87454
C         40.36220        50.37417        -0.37998
C         39.14474        51.07067         0.06582
C         40.48504        53.07659         0.47442
C         39.25632        52.40256         0.46254
C         42.81529        20.40144         1.16544
C         41.55903        21.05337         1.03325
C         42.82000        23.16339         0.35637
C         41.56943        22.50129         0.78353
C         42.77798        24.46448        -0.14879
C         41.52143        25.15250        -0.31541
C         42.74332        27.32149        -0.27428
C         41.51518        26.60213        -0.39113
C         42.70173        28.74416         0.02359
C         41.45656        29.42545         0.04024
C         42.64558        31.63071         0.57387
C         41.32808        30.85437         0.55278
C         42.73281        33.00938        -0.01122
C         41.49679        33.71612        -0.47054
C         42.73085        35.89558        -0.40134
C         41.48608        35.19975        -0.52094
C         42.74139        37.31974        -0.54042
C         41.50080        38.04161        -0.68842
C         42.81181        40.17496        -1.05479
C         41.51565        39.46316        -0.76864
C         42.80525        41.65469        -0.77971
C         41.55768        42.36608        -0.73865
C         42.80088        44.48927        -0.70024
C         41.55363        43.78678        -0.68905
C         42.83619        45.90414        -0.75915
C         41.57683        46.63235        -1.01723
C         42.84256        48.73837        -0.36770
C         41.59615        48.14480        -0.93704
C         42.88234        50.21559        -0.01897
C         41.65215        51.00728        -0.06490
C         42.98822        53.01220         0.34820
C         41.70035        52.37189         0.24451
C         44.00570        21.09273         0.98093
C         45.29402        23.13275         0.28782
C         44.04492        22.44229         0.55353
C         45.26244        24.37448        -0.39495
C         43.98933        25.13382        -0.76296
C         45.17198        27.44374        -0.41274
C         43.99365        26.65645        -0.45457
C         45.15826        28.79978         0.07358
C         43.92808        29.43612         0.29353
C         45.20134        31.64750         0.42627
C         43.94025        30.88456         0.58789
C         45.19153        33.06568         0.41143
C         43.96058        33.79791         0.20053
C         45.24571        35.84594        -0.18282
C         43.94439        35.15563        -0.09866
C         45.25971        37.34621        -0.35455
C         43.97401        38.06466        -0.43606
C         45.24953        40.17507        -0.37682
C         44.01912        39.45491        -0.51544
C         45.27532        41.58691        -0.56558
C         44.01936        42.32460        -0.71288
C         45.26458        44.45741        -0.75842
C         44.04088        43.76468        -0.69566
C         45.30168        45.87154        -0.75338
C         44.06859        46.60589        -0.73941
C         45.33171        48.72705        -0.51693
C         44.11394        48.03214        -0.61233
C         45.36510        50.15866        -0.28296
C         44.17887        50.90161        -0.04806
C         44.15624        52.31851         0.14319
C         47.75417        23.25896         0.37972
C         46.56087        22.59313         0.64100
C         47.75353        24.45213        -0.37786
C         46.49190        24.85977        -0.84611
C         47.66745        27.47275        -0.39347
C         46.44633        26.96748        -0.84577
C         47.63110        28.79718         0.14844
C         46.41783        29.48936         0.27108
C         47.63061        31.64513         0.63340
C         46.41619        30.92891         0.47537
C         47.62527        33.04620         0.70039
C         46.42442        33.77528         0.52854
C         47.62727        35.94784         0.50826
C         46.45729        35.20505         0.35802
C         47.66910        37.37536         0.30531
C         46.48455        38.07653         0.00121
C         47.69928        40.21008         0.05292
C         46.47309        39.49124        -0.07953
C         47.71397        41.60821        -0.21366
C         46.49922        42.27098        -0.53940
C         47.78414        44.43571        -0.69672
C         46.52836        43.68765        -1.04066
C         47.78715        45.84510        -0.76405
C         46.54945        46.57813        -0.76957
C         47.80979        48.69816        -0.70756
C         46.56950        48.00012        -0.67879
C         47.80168        50.11004        -0.54140
C         46.63625        50.80523        -0.31648
C         50.20046        24.65337        -0.69271
C         48.94529        25.29669        -0.57286
C         50.15444        27.44256        -0.38922
C         48.91316        26.71893        -0.49670
C         50.16453        28.82082        -0.01162
C         48.91627        29.43830         0.47075
C         50.16729        31.68253         0.58183
C         48.91089        30.92757         0.76504
C         50.15882        33.07461         0.77635
C         48.87626        33.76259         1.00831
C         50.14763        35.99330         0.84342
C         48.86149        35.28023         0.95531
C         50.13334        37.40941         0.73467
C         48.89555        38.10281         0.49479
C         50.14874        40.24581         0.48032
C         48.91535        39.51249         0.34826
C         50.15984        41.65057         0.20889
C         48.96154        42.31949        -0.17548
C         50.24166        44.39737        -0.54928
C         48.98374        43.72133        -0.46534
C         50.26134        45.81235        -0.85005
C         49.03737        46.54670        -0.81275
C         50.29065        48.62761        -1.02412
C         49.04928        47.97015        -0.86059
C         51.38358        25.36705        -0.76459
C         52.63599        27.52681        -0.57451
C         51.39948        26.77141        -0.59186
C         52.60448        28.92814        -0.31118
C         51.36535        29.57208         0.00300
C         52.58654        31.73813         0.22366
C         51.36639        30.98846         0.28826
C         52.57731        33.12654         0.56098
C         51.37288        33.81469         0.79954
C         52.56441        35.99839         1.11597
C         51.35502        35.26983         0.95208
C         52.53695        37.40417         1.13037
C         51.34768        38.14250         0.89548
C         52.56091        40.35273         1.09727
C         51.36029        39.58833         0.83033
C         52.59812        41.74320         0.76453
C         51.40638        42.35911         0.24154
C         52.71854        44.29279        -0.64089
C         51.42809        43.69218        -0.27029
C         52.74532        45.74320        -1.14730
C         51.48085        46.50205        -1.06211
C         51.47032        47.90892        -1.13955
C         55.06739        27.63887        -0.82278
C         53.88495        26.90792        -0.82623
C         55.05815        29.02464        -0.59995
C         53.81770        29.69483        -0.35455
C         55.02039        31.92832        -0.48604
C         53.80272        31.09600        -0.13250
C         55.10461        33.24488         0.26986
C         53.86518        33.79078         0.84149
C         55.12277        36.00785         1.15920
C         53.84666        35.26786         1.25678
C         55.09612        37.40330         1.65109
C         53.71815        38.14136         1.60120
C         54.84382        40.16289         2.19683
C         53.70863        39.60883         1.60888
C         54.90519        42.36288         1.68810
C         53.80662        42.59472         0.82931
C         55.11537        44.52216        -0.02529
C         53.91931        43.76315         0.01932
C         55.15794        45.81758        -0.67913
C         54.04259        46.44496        -1.11149
C         56.29126        29.78085        -0.55396
C         56.29573        31.12674        -0.43973
C         56.23989        34.00606         0.27869
C         56.25984        35.35897         0.76327
C         56.27867        38.25044         1.72229
C         56.12696        39.53336         2.17494
C         56.11694        43.06412         1.61202
C         56.24091        44.11862         0.72066
O         39.04386        34.27038        -2.08437
O         42.38504        33.03949        -1.44555
O         48.77003        34.55585         2.23743
O         53.90842        34.20214         2.25219
O         54.78985        41.45323         2.74319
O         46.45994        25.91892        -1.77687
O         42.71738        49.13778         1.03733
O         40.75548        23.25421         1.72615
O         33.27204        32.30915         1.68346
O         38.44721        41.81758         0.80634
O         52.77064        44.60678        -2.07358
O         31.28390        43.48327        -1.49526
O         28.17879        39.92095        -0.97079
O         38.40791        40.01285        -2.25445
O         48.97926        29.94905         1.85293
O         32.58734        40.92042        -1.86117
O         38.81188        47.44102        -2.12010
O         35.02140        46.09774         1.72929
O         34.33674        35.19238        -1.93739
O         37.42132        49.97556        -1.36215
O         37.20738        33.58199         0.91262
O         45.46577        36.44682        -1.51324
O         34.77257        32.36552        -1.55909
O         41.73705        47.50094        -2.22269
O         43.30586        31.40790         1.85123
O         30.94052        28.66944         1.54277
O         38.29981        24.83636        -1.91124
O         31.17834        40.01946         1.35311
O         54.24362        37.55478         2.83126
O         40.32367        50.00754        -1.87510
O         54.82919        32.31888        -1.89862
H         54.80384        31.49269        -2.42700
O         36.56671        30.78741        -2.26488
H         35.98723        31.52088        -2.58773
O         38.16608        22.31668        -1.94749
H         38.37024        23.11880        -2.49077
O         42.95785        40.08329        -2.52478
H         42.99257        39.13125        -2.76142
O         31.49524        34.33501         2.48044
H         31.77805        33.54479         2.99034
O         46.57493        43.55681        -2.51607
H         46.55531        44.46276        -2.89230
O         43.82297        25.02588        -2.21010
H         44.64057        25.39756        -2.61374
O         36.79777        24.87827         1.40593
H         36.03174        25.27787         1.86991
O         40.89446        30.69818         1.93872
H         41.71643        30.66391         2.48525
O         35.03428        37.55712        -2.69770
H         34.47918        36.80244        -3.00425
H         27.06996        27.16608        -1.31148
H         25.89413        29.25833        -0.91900
H         25.89796        31.60482        -0.18988
H         25.84736        33.25037         0.74891
H         25.79460        35.66631         0.96280
H         25.84237        37.58504         1.35582
H         25.72407        39.98444         1.26834
H         25.78631        41.96305         1.27697
H         25.88258        44.40530         1.62240
H         27.13553        46.50367         1.66664
H         29.09156        25.77232        -1.30715
H         29.25419        47.73767         1.44714
H         32.74741        23.31917        -0.72602
H         30.66867        24.57963        -0.74199
H         32.95512        49.88636         0.65187
H         30.84204        48.68870         0.85717
H         34.41192        22.31588        -0.19892
H         34.71249        50.59647         1.43298
H         36.47885        21.09436        -0.20896
H         36.79116        51.85023         1.29392
H         40.32350        19.32554         1.39349
H         38.21714        20.35585         0.68784
H         40.51924        54.14585         0.72304
H         38.35145        52.96607         0.73002
H         42.83938        19.33183         1.41936
H         43.02170        54.09208         0.55034
H         44.95021        20.54853         1.11807
H         45.10310        52.87436         0.17286
H         48.69799        22.85611         0.77328
H         46.60351        21.65021         1.20258
H         48.74785        50.66689        -0.55294
H         46.69858        51.88960        -0.15807
H         50.22935        23.55730        -0.76842
H         50.33526        49.72237        -1.09076
H         52.32153        24.81510        -0.90841
H         52.40841        48.45772        -1.29606
H         56.02478        27.12948        -1.00405
H         53.93654        25.82992        -1.02682
H         56.12366        46.34452        -0.69042
H         54.10738        47.47777        -1.48132
H         57.23985        29.22436        -0.59710
H         57.25497        31.66293        -0.41840
H         57.17274        33.61817        -0.15337
H         57.21952        35.89500         0.74098
H         57.27320        37.84136         1.49805
H         57.00354        40.15494         2.40495
H         56.93505        42.79594         2.29271
H         57.17052        44.70196         0.66613
