         576
 CSIRO Nanostructure Databank - Neutral Graphene Oxide Data Set
C          5.88448        18.94743         0.01589
C          5.83786        20.32784         0.03921
C          4.61802        21.09461         0.05455
C          5.78664        23.27593         0.11960
C          4.59288        22.46925         0.03846
C          5.80709        24.65136         0.09766
C          8.43890        14.73001         0.32260
C          8.42157        16.09010         0.13314
C          7.18733        16.82964         0.04023
C          8.39478        18.98044        -0.03973
C          7.12419        18.20656        -0.05225
C          8.30224        20.39333         0.51347
C          7.12179        21.09778        -0.16647
C          8.30652        23.30974         0.02568
C          7.06709        22.54007         0.46098
C          8.29466        24.76240         0.21987
C          7.03406        25.43084         0.22181
C          8.23809        27.58411         0.30243
C          7.02491        26.83139         0.26318
C          8.23276        28.99327         0.33564
C         10.93082        10.43266         0.41480
C         10.91111        11.87249         0.43892
C          9.70190        12.58167         0.36121
C         10.90328        14.68792         0.60895
C          9.68555        13.98966         0.43052
C         10.81748        16.16189         0.89071
C          9.77421        16.77916        -0.05045
C         10.75998        19.00523         0.95447
C          9.70072        18.29069         0.10603
C         10.81176        20.48049         0.61557
C          9.62780        21.12495         0.37925
C         10.84468        23.34108         0.33093
C          9.62088        22.57091         0.07730
C         10.77980        24.76823         0.31598
C          9.52232        25.46761         0.26201
C         10.72330        27.63247         0.26529
C          9.49769        26.89267         0.29474
C         10.70610        29.05221         0.37313
C          9.44170        29.74963         0.42317
C         10.64848        31.92938         0.91085
C          9.42830        31.14168         0.53964
C         10.85114        33.19400         0.08586
C         13.31499         6.09223         0.65267
C         13.27288         7.54584         0.61404
C         12.12178         8.26808         0.48756
C         13.37808        10.43018         0.57990
C         12.10694         9.71993         0.50223
C         13.38433        11.88646         0.59194
C         12.14262        12.59165         0.54313
C         13.38329        14.74867         0.73500
C         12.13894        14.01374         0.63238
C         13.39455        16.16895         0.86301
C         12.13717        16.91216         0.85879
C         13.30782        19.07279         1.16927
C         12.08933        18.28353         0.90070
C         13.29289        20.54049         0.91701
C         12.07317        21.20953         0.66351
C         13.28317        23.43112         0.82278
C         12.03779        22.63938         0.54036
C         13.24997        24.83433         0.25881
C         11.99878        25.52666         0.27261
C         13.18755        27.69359        -0.26172
C         11.95707        26.93401         0.16489
C         13.23283        29.14791         0.19633
C         11.93063        29.79648         0.52399
C         13.15435        31.85725         1.26548
C         11.92184        31.12771         0.86082
C         13.11625        33.31512         0.97493
C         12.03714        33.85576         0.15863
C         13.46708        35.98928        -0.04877
C         12.20319        35.24073        -0.44160
C         13.60447        37.32506        -0.50749
C         15.71213         6.08566        -0.04128
C         14.46421         5.40971         0.46305
C         15.78391         7.55059         0.29796
C         14.57976         8.24050         0.88461
C         15.85343        10.39222         0.70348
C         14.55371         9.71340         0.60649
C         15.85917        11.88871         0.74825
C         14.58302        12.60861         0.66874
C         15.87278        14.73460         0.80376
C         14.61479        14.04034         0.70875
C         15.87607        16.13899         0.95069
C         14.63777        16.83969         0.98648
C         15.89696        19.06589         1.10860
C         14.61591        18.29911         1.25635
C         15.84272        20.54691         0.92300
C         14.53776        21.26805         0.80747
C         15.71490        23.32917         0.03581
C         14.52852        22.62984         0.56679
C         15.68491        24.80262        -0.23411
C         14.44301        25.55302         0.03721
C         15.72245        27.64370         0.13371
C         14.46960        26.95169        -0.00958
C         15.78118        28.97058         0.54338
C         14.53543        29.78009         0.61382
C         15.83973        31.81059         1.37335
C         14.50829        31.11499         1.32674
C         15.98207        33.09457         1.82320
C         14.13308        34.15260         1.35873
C         15.79168        36.02997         0.85662
C         14.47514        35.41109         0.73330
C         15.86324        37.40989         0.42045
C         14.73430        38.04049        -0.19335
C         18.19557         6.05135         0.15399
C         17.00410         5.38233         0.28097
C         18.18811         7.46238        -0.10843
C         16.99220         8.21893         0.12249
C         18.20733        10.37813        -0.05844
C         17.07114         9.67808         0.23574
C         18.28544        11.88867        -0.12764
C         17.09273        12.62745         0.43516
C         18.46049        14.65163         0.89171
C         17.11641        13.98180         0.62896
C         18.41334        16.14681         0.62287
C         17.19736        16.87641         1.19874
C         18.25445        18.99514         0.33866
C         17.14407        18.33282         0.74356
C         18.20390        20.42593        -0.17957
C         17.10504        21.23778         0.48220
C         18.19302        23.29710        -0.60215
C         17.04745        22.67550         0.12754
C         18.16897        24.80378        -0.78632
C         16.95307        25.55176        -0.36651
C         18.17746        27.69962        -0.37979
C         16.95703        26.89705        -0.12336
C         18.29319        29.02609         0.23642
C         17.10313        29.49296         1.07932
C         18.40587        31.76236         1.25080
C         17.10828        31.00852         1.32599
C         18.37163        33.24702         1.15865
C         17.20389        33.96406         1.79643
C         18.24358        36.09998         1.09763
C         17.01414        35.38246         1.21718
C         18.26244        37.52515         0.87670
C         17.04457        38.15418         0.55139
C         20.75154         6.11531        -0.03554
C         19.50532         5.29194         0.23913
C         20.68250         7.41942        -0.52812
C         19.39475         8.12515        -0.58256
C         20.70513        10.39003        -0.58426
C         19.40636         9.69431        -0.58830
C         20.80569        11.72965        -0.25950
C         19.63122        12.42248         0.43541
C         20.80254        14.60946        -0.01378
C         19.65260        13.94747         0.27270
C         20.88085        16.10717         0.24357
C         19.52917        16.80549         0.25087
C         20.66652        19.02463        -0.40267
C         19.60609        18.32536         0.43960
C         20.73432        20.51690        -0.36775
C         19.51720        21.20636        -0.23569
C         20.67807        23.32616        -0.73018
C         19.48969        22.60151        -0.47065
C         20.66486        24.78742        -0.84059
C         19.47345        25.48731        -0.80101
C         20.73804        27.65198        -0.57140
C         19.46385        26.95568        -0.76714
C         20.70309        29.03638        -0.29382
C         19.51437        29.68676         0.18996
C         20.91991        31.81866         0.72948
C         19.65826        31.02381         0.84763
C         20.80270        33.30404         0.90053
C         19.53048        33.97560         0.99910
C         20.71980        36.16870         1.08344
C         19.51610        35.42901         1.11930
C         20.72260        37.60838         1.02022
C         19.47806        38.25745         0.90222
C         23.22078         6.13041         0.08367
C         21.98925         5.47544         0.22823
C         23.22385         7.44501        -0.60016
C         21.90498         8.13604        -0.94498
C         23.16663        10.37387        -1.21498
C         21.81385         9.65106        -1.30584
C         23.20375        11.82597        -0.94004
C         22.01733        12.48333        -0.50729
C         23.23618        14.60338        -0.62965
C         22.03581        13.90481        -0.37601
C         23.21127        16.05922        -0.84729
C         21.91470        16.77841        -0.65435
C         23.18147        19.05728        -0.50915
C         21.89989        18.27543        -0.73354
C         23.11268        20.40254        -1.27194
C         21.91074        21.20659        -0.76449
C         23.09790        23.33706        -1.41441
C         21.88450        22.60648        -0.88904
C         23.14264        24.81283        -1.05065
C         21.93875        25.51615        -0.88577
C         23.24605        27.67763        -0.49577
C         21.94503        26.93788        -0.70682
C         23.19107        29.13412        -0.88898
C         21.91390        29.81710        -0.60918
C         23.33539        31.89796        -0.34926
C         22.00421        31.26251        -0.17626
C         23.62896        33.05419         0.28136
C         21.91051        34.06237         1.15642
C         23.19927        36.16294         0.78757
C         21.99043        35.49168         1.03474
C         23.20725        37.60838         0.87139
C         21.97190        38.28968         1.00921
C         25.68613         6.23788         0.45916
C         24.44598         5.54853         0.48316
C         25.65481         7.71183         0.27441
C         24.41696         8.29907        -0.33429
C         25.71179        10.42510        -0.81285
C         24.46409         9.65233        -0.94931
C         25.68220        11.76484        -1.06835
C         24.43924        12.50171        -0.97330
C         25.69729        14.66888        -0.95420
C         24.47650        13.93603        -0.84659
C         25.70422        16.10471        -0.99569
C         24.48168        16.79800        -0.91548
C         25.75076        18.99835        -1.06896
C         24.48422        18.25534        -0.70613
C         25.62632        20.46202        -1.33604
C         24.44062        21.12891        -1.20883
C         25.62894        23.39220        -1.02160
C         24.36576        22.60435        -1.02441
C         25.61002        24.84554        -1.23452
C         24.40139        25.53222        -1.12379
C         25.63046        27.70586        -1.26405
C         24.43372        26.97049        -1.07614
C         25.61014        29.13181        -1.27579
C         24.36798        29.82723        -1.19112
C         25.67759        32.04484        -1.23479
C         24.30130        31.34617        -1.41019
C         25.74450        33.47185        -0.80864
C         24.48327        34.09825        -0.30933
C         25.70346        36.31266        -0.03987
C         24.38276        35.53543         0.09734
C         25.70577        37.62822         0.71780
C         24.45367        38.29368         0.88859
C         28.16836         6.31375         0.55547
C         26.91597         5.60976         0.64723
C         28.20196         7.66146         0.21517
C         26.95685         8.52113         0.28771
C         28.22732        10.44284        -0.76870
C         26.97114         9.59863        -0.82001
C         28.19186        11.75227        -1.16275
C         26.92393        12.51101        -1.47060
C         28.26305        14.63715        -1.06501
C         26.98284        13.89054        -0.75926
C         28.18905        16.03059        -1.63170
C         26.95662        16.84243        -1.22675
C         28.21460        18.95798        -1.73896
C         26.95747        18.20621        -1.42804
C         28.18877        20.46955        -1.70974
C         26.87727        21.20692        -1.63214
C         28.10677        23.37858        -1.00150
C         26.87177        22.67808        -1.42377
C         28.13641        24.83536        -1.08629
C         26.90055        25.54065        -1.59654
C         28.09707        27.69424        -1.04316
C         26.90092        27.01925        -1.30909
C         28.15414        29.11538        -1.09532
C         26.91151        29.88058        -1.52972
C         28.18668        31.98931        -0.85570
C         26.87331        31.22234        -0.78607
C         28.23045        33.34631        -0.48762
C         26.96715        34.01092        -0.15507
C         28.22029        36.10236         0.48142
C         26.92368        35.43550         0.31316
C         28.18664        37.39536         1.25116
C         26.91034        38.19138         1.08950
C         30.61182         6.23567         0.91505
C         29.40741         5.59500         0.80610
C         30.71131         7.70463         0.69601
C         29.47713         8.42111         0.17796
C         30.63709        10.34258        -1.01337
C         29.48140         9.72270        -0.56919
C         30.69366        11.76644        -1.20407
C         29.44271        12.51802        -1.46639
C         30.74154        14.62999        -0.74368
C         29.47384        13.97385        -1.03802
C         30.63016        16.10420        -0.65262
C         29.53257        16.76135        -1.44490
C         30.78305        18.99918        -0.99509
C         29.53647        18.24815        -1.51161
C         30.53058        20.46932        -0.73323
C         29.40541        21.18735        -1.30793
C         30.61691        23.37507        -0.85530
C         29.37143        22.59165        -0.86212
C         30.55692        24.75410        -0.76380
C         29.31137        25.48552        -0.80665
C         30.55518        27.67155        -0.27216
C         29.22040        26.92337        -0.36091
C         30.61348        29.12929        -0.56756
C         29.35724        29.83641        -0.94529
C         30.68026        32.00455        -1.20438
C         29.38249        31.25828        -0.98358
C         30.64782        33.45277        -0.71783
C         29.45609        34.09124        -0.39344
C         30.64325        36.19151         0.29975
C         29.42011        35.47739         0.12044
C         30.65024        37.52760         0.83792
C         29.46746        38.16563         1.15840
C         32.98611         6.16133         1.59618
C         31.84572         5.52628         1.24073
C         33.03059         7.67762         1.72405
C         32.11208         8.23099         0.65592
C         33.73199        10.00341         0.13562
C         32.54126         9.22458        -0.15296
C         33.82865        11.31148        -0.26812
C         31.86952        12.48069        -1.03637
C         33.08683        14.11548         0.43795
C         31.93378        13.85967        -0.61084
C         33.13856        15.54088         0.88087
C         31.41280        16.86616         0.17551
C         32.88966        19.11652         0.28307
C         31.48773        18.39332         0.26189
C         33.02660        20.45346        -0.23253
C         31.79680        21.24641        -0.43485
C         33.09023        23.29749        -0.94936
C         31.87535        22.66750        -0.81763
C         33.11204        24.77472        -1.07528
C         31.81152        25.52108        -0.88404
C         33.11789        27.63858        -0.44595
C         31.84607        26.85758        -0.17155
C         33.10658        29.09964        -0.47872
C         31.93470        29.80084        -0.68819
C         33.20796        31.98530        -0.92511
C         31.90084        31.30509        -0.53906
C         33.22962        33.48502        -0.82279
C         31.90746        34.21082        -0.74054
C         33.18383        36.22298         0.25028
C         31.89828        35.63551        -0.20325
C         33.12065        37.57043         0.77562
C         31.93419        38.19828         0.99882
C         34.42779         8.27277         1.70062
C         35.92487        10.24012         1.23551
C         34.70554         9.46684         1.07714
C         35.99035        11.57278         0.86001
C         34.79644        12.21773         0.29242
C         35.62069        14.34197         1.15979
C         34.55419        13.57571         0.36244
C         35.57730        15.83965         0.94743
C         34.22941        16.30063         1.10248
C         35.38031        18.96543         0.37895
C         34.10343        18.55996         0.76296
C         35.55459        20.28818        -0.35593
C         34.25618        21.07981        -0.37744
C         35.64697        23.23477        -0.55497
C         34.33817        22.50138        -0.80124
C         35.67228        24.74686        -0.57169
C         34.38886        25.51335        -0.79266
C         35.52050        27.61612         0.16845
C         34.30533        26.95155        -0.43059
C         35.55775        29.10545        -0.07780
C         34.40131        29.77987        -0.40998
C         35.74934        31.98218        -0.31817
C         34.47633        31.21338        -0.72820
C         35.59879        33.42468        -0.04423
C         34.45261        34.14091        -0.28241
C         34.35891        35.52050         0.16468
C         37.15605        12.40313         1.02316
C         38.11564        14.67543         1.13878
C         37.01580        13.77952         1.02328
C         37.98297        16.06970         1.11554
C         36.66612        16.67798         0.91700
C         37.88692        18.95796         0.80941
C         36.59834        18.13676         0.56479
C         37.78577        20.43684         0.87203
C         36.70355        21.10790         0.26372
C         37.75655        23.27447         0.80068
C         36.71633        22.52269         0.19640
C         37.78603        24.73934         0.72566
C         36.79972        25.44661         0.08360
C         37.92204        27.64200         0.70908
C         36.87686        26.95036        -0.14164
C         37.87210        29.01688         0.82496
C         36.77447        29.80688         0.29623
C         36.80473        31.19154         0.32072
C         39.09373        16.89552         1.46248
C         40.02353        19.08567         2.08267
C         39.01851        18.28493         1.47835
C         39.95142        20.47625         2.09628
C         38.83542        21.17084         1.47968
C         39.89645        23.33552         2.06770
C         38.81273        22.59078         1.45813
C         39.91475        24.72371         2.01093
C         38.89487        25.46372         1.34965
C         38.93306        26.85832         1.33292
C         40.98885        21.24923         2.71977
C         40.96047        22.61534         2.71084
O         23.98458         9.85104        -2.32170
O         24.63900         8.37120         1.12246
O         31.80086         9.62556        -1.27090
O         25.90024        33.10656        -2.21104
O         16.07849        19.96675         2.25238
O         17.94830        23.86953        -1.90481
O         22.70832         7.42025        -1.95395
O         32.40552        25.40463        -2.20684
O          9.32756        18.90955        -1.16857
O         35.48838        31.56035        -1.70197
O         20.01061        18.44426         1.79407
O          7.08352        22.40803         1.84501
O         16.02645        11.07961         2.00478
O         37.57722        18.40483        -0.49673
O         13.89700        18.67571         2.46591
O         21.52046        30.93055        -1.50724
O         28.24276        19.70363        -2.99349
O         13.69407        31.29057         2.51381
O         30.49065        28.62143         0.86796
O         25.43624        18.67386         0.34598
O         13.98479        29.96885        -0.77248
O         26.77797        22.15846        -2.77998
O         20.94765        18.63195        -1.81077
O         17.88780        31.30154         2.56000
O         26.70276        34.33046         1.26080
O         18.61456        27.60867        -1.77327
O         24.98618        22.98905         0.24520
O         29.91658        17.43267        -2.68878
O         33.99078        17.53966         1.71009
O         23.06762        33.37113         1.51522
O         30.82278        20.98049         0.61918
O         15.44963        23.82543        -1.32196
O         22.19845        16.26725        -1.97919
O         14.91115        33.74086         2.43957
O         17.49466        22.25361         1.45489
O         29.91276         8.53853         1.60583
O         33.29583        32.79954        -2.12673
O         35.36297        25.30799        -1.89262
O         31.92715        16.15116         1.27820
O         35.34775        22.68929        -1.87699
O         19.15894         8.92134        -1.79111
O         31.86936        35.35761        -1.65670
O         19.73332        12.18858         1.81046
O          8.97812        22.92305        -1.20849
O         20.67131        31.02316         1.92557
O         23.87288        35.05208        -1.23289
O         33.04491        11.79177        -1.30834
O         28.51382        22.86493         0.32309
O         11.04833        36.04238        -0.14874
H         10.99722        36.15914         0.82204
O         26.79500        12.73615        -2.88648
H         27.65142        13.11436        -3.20749
O         17.58222        34.17336         3.19526
H         17.75044        33.28070         3.57434
O         37.23599        27.18906        -1.51538
H         36.64834        26.62608        -2.07751
O          7.96152        20.29947         1.90274
H          8.78305        20.10652         2.41966
O         19.61107         4.64942         1.51868
H         19.55837         5.33518         2.21546
O         10.22751        16.49845        -1.39039
H          9.82953        17.18866        -1.97065
O         13.28358        23.66097         2.29397
H         13.33010        22.78275         2.73200
O         17.26492        28.83425         2.36626
H         17.77648        29.45512         2.93975
O         10.45353        32.36352         2.30156
H          9.63820        32.90629         2.33308
O         10.29256        16.28269         2.25754
H         10.90500        15.80272         2.85519
O         17.76572        20.30420        -1.57093
H         18.47662        19.85990        -2.08139
O         35.33566        27.40409         1.60722
H         34.45337        27.75209         1.85806
O         14.79321         8.13329         2.34554
H         15.34601         8.89780         2.62354
O         26.60522        30.94290         0.61459
H         27.38260        30.47827         0.99011
O         32.56486        13.38664         1.60892
H         31.77395        13.87587         1.92810
O         15.59733         6.01953        -1.52143
H         16.40317         6.43831        -1.89471
O         21.40500        16.26418         1.58049
H         20.98882        17.10071         1.96514
O         27.00766        30.17432        -2.94142
H         26.98511        29.32916        -3.43656
O         13.07012        27.73786        -1.72591
H         13.64083        28.48553        -2.02272
O         27.04849         9.20605         1.55424
H         26.15321         9.19864         1.96367
O         21.45156         9.69971        -2.70256
H         22.19200         9.27614        -3.19323
O         28.13227        36.95210         2.68432
H         28.21111        37.75807         3.23866
O         31.96323        26.48141         1.23567
H         31.56492        27.21278         1.76089
O          7.33236        21.14519        -1.57191
H          6.49955        21.40537        -2.01498
O         30.84417        32.01200        -2.63921
H         31.66244        32.52655        -2.85363
O         23.45153        27.67591         0.98204
H         24.35907        28.00500         1.15877
O         28.74130        26.78838         1.01395
H         29.03137        27.59645         1.49727
O         23.10352        19.39353         0.89276
H         24.02221        19.47855         1.24062
O         22.90335        20.19482        -2.69095
H         22.07369        19.65766        -2.78566
O         31.77479        18.95441        -2.04351
H         31.45480        18.33037        -2.74008
O         29.46302        12.69039        -2.96032
H         29.65108        11.81009        -3.35301
O         25.88152        36.66686        -1.43083
H         25.20404        36.17185        -1.95205
O         30.73481        18.67923         1.45206
H         31.21774        18.28745         2.21030
O         23.84009        31.58824        -2.73868
H         24.32992        32.36920        -3.08532
O         27.02490        13.56741         0.66531
H         26.92342        14.39631         1.17861
O         10.29655        18.95919         2.34094
H         10.25876        17.99939         2.60429
O         28.00325        15.79359        -3.05466
H         28.54084        16.47083        -3.53198
O         35.89341        20.01215        -1.74165
H         35.90108        20.88292        -2.20767
O         35.25363        14.13531         2.57147
H         34.32888        13.79591         2.60329
O         23.03481        23.26049        -2.87217
H         22.93778        22.30899        -3.11565
O         26.98245        25.43139        -3.06981
H         26.85417        24.48937        -3.32133
O         18.65665        14.50742         2.31408
H         19.05003        13.58676         2.44995
O         31.78986        31.54580         0.90070
H         31.17242        30.87911         1.27406
O         18.33370        12.21378        -1.55090
H         17.70572        11.63802        -2.03489
O         17.39767        16.91139         2.62515
H         18.26166        17.36096         2.78064
O         26.99616         8.86581        -2.07655
H         26.70841         9.47323        -2.79163
O         32.47875         8.01242         3.03090
H         32.98759         7.52476         3.71082
H          4.94663        18.37295         0.08441
H          3.66434        20.54398         0.05276
H          3.62048        22.98437        -0.00812
H          4.86470        25.20701        -0.03580
H          7.49351        14.16619         0.36061
H          6.24844        16.25703         0.11234
H          6.06667        27.37181         0.23912
H          7.27167        29.52890         0.34709
H          9.97212         9.89757         0.34028
H          8.75584        12.03205         0.24744
H          8.46059        31.66811         0.55067
H          9.99907        33.63889        -0.44958
H         12.38122         5.55156         0.87341
H         11.16144         7.74661         0.35135
H         12.22678        35.13866        -1.56304
H         12.77551        37.78830        -1.05967
H         14.47096         4.31069         0.51709
H         14.82473        39.09518        -0.49092
H         16.99909         4.29281         0.43368
H         17.03794        39.22361         0.29315
H         19.48103         4.46235        -0.51912
H         19.44229        39.34845         0.76485
H         21.96346         4.46609         0.66457
H         21.97589        39.38980         1.03387
H         24.43837         4.49757         0.81147
H         24.45839        39.35851         1.16962
H         26.94020         4.52550         0.83405
H         26.89649        39.18517         1.56923
H         29.34790         4.51013         0.98443
H         29.48879        39.20572         1.52009
H         33.87934         5.57549         1.86516
H         31.81414         4.42485         1.22903
H         34.06753        38.08845         0.98856
H         31.92560        39.22911         1.38258
H         35.16520         7.84117         2.39701
H         36.77869         9.78403         1.75834
H         36.44356        33.93384         0.44635
H         35.28763        35.99547         0.51760
H         38.14848        11.93731         1.11881
H         39.12409        14.24849         1.25553
H         38.67960        29.54684         1.35446
H         37.65304        31.71382         0.78850
H         40.00610        16.40745         1.83751
H         40.88134        18.58636         2.55764
H         40.74803        25.27189         2.47582
H         39.74493        27.37313         1.87026
H         41.82046        20.71441         3.20103
H         41.76946        23.19049         3.18413
