         404
 CSIRO Nanostructure Databank - Neutral Graphene Oxide Data Set
C          1.22042         2.32908         1.22228
C          1.14320         3.68139         0.84528
C          2.39702         1.59625         1.11263
C          2.24109         4.34645         0.26664
C          1.02393         6.51073        -0.02591
C          0.98997         7.86785        -0.04655
C          2.24916         5.73645        -0.04496
C          2.24950         8.64468        -0.01839
C          1.06606        10.93146        -0.06512
C          1.07442        12.25134        -0.30414
C          2.31932        10.15245        -0.01100
C          2.32874        13.00531        -0.49708
C          1.18035        15.12179         0.51245
C          1.31175        16.22168         1.29727
C          2.35834        14.51794        -0.11238
C          2.57495        16.90766         1.40639
C          2.65051        18.11979         2.19177
C          3.57097         2.18248         0.56401
C          3.44998         3.54346        -0.00389
C          4.80143         1.53636         0.57718
C          4.74137         4.27946        -0.34876
C          3.49084         6.41645        -0.29772
C          3.45097         7.89725        -0.50517
C          4.70218         5.74255        -0.35797
C          4.71038         8.67117        -0.70717
C          3.58848        10.86441        -0.36782
C          3.60798        12.28905        -0.44324
C          4.77280        10.14935        -0.53792
C          4.83801        13.00118        -0.46786
C          3.68065        15.11738         0.13515
C          3.71469        16.40064         0.77823
C          4.84520        14.42391        -0.23481
C          4.90774        17.32393         0.62982
C          3.83377        18.76507         2.39814
C          5.04695        18.31025         1.76491
C          6.04688         2.19450         0.27393
C          6.03874         3.59944        -0.14187
C          7.24723         1.56583         0.54100
C          7.21626         4.27569        -0.39253
C          5.99916         6.45438        -0.38867
C          5.99692         7.93233        -0.55314
C          7.24884         5.69244        -0.65513
C          7.20881         8.63079        -1.06774
C          6.03515        10.82809        -0.64291
C          6.07833        12.25463        -0.54344
C          7.25347        10.09240        -0.81110
C          7.35380        12.90449        -0.52002
C          6.13504        15.16504        -0.26297
C          6.20185        16.58786         0.25305
C          7.41791        14.38955        -0.43743
C          7.49448        17.10748         0.77973
C          6.25801        18.88272         2.02788
C          7.49847        18.32757         1.52800
C          8.53519         2.34973         0.52960
C          8.47756         3.45306        -0.52243
C          9.79154         1.53810         0.36732
C          9.74328         4.26955        -0.54787
C          8.44462         6.34687        -0.94889
C          8.46835         7.82180        -1.23230
C          9.69263         5.61388        -0.90891
C          9.72758         8.57931        -1.05543
C          8.49840        10.72812        -0.71455
C          8.53877        12.14976        -0.55723
C          9.73168         9.93100        -0.76371
C          9.86229        12.77682        -0.32397
C          8.72403        15.07534        -0.06306
C          8.69623        16.38467         0.64577
C          9.97082        14.23939         0.04145
C          9.89302        16.89698         1.21309
C          8.71265        18.93674         1.85020
C          9.94016        18.25917         1.64742
C         10.97290         2.15132        -0.00461
C         10.98223         3.56531        -0.39724
C         12.21808         1.44114         0.03464
C         12.20410         4.21955        -0.60110
C         10.96191         6.30078        -1.18532
C         10.99721         7.85761        -1.21754
C         12.22844         5.62015        -0.91185
C         12.25314         8.47728        -0.80290
C         10.98458        10.54586        -0.36140
C         10.96806        11.88250         0.07097
C         12.21185         9.81332        -0.32402
C         12.04882        12.38220         0.82626
C         11.04341        14.65324         0.97965
C         11.07744        16.05881         1.44885
C         11.96682        13.72090         1.37904
C         12.45405        16.82046         1.65995
C         11.18649        18.94165         1.74574
C         12.41152        18.28974         1.51931
C         13.44546         2.06332        -0.21271
C         13.46045         3.49393        -0.51832
C         14.67129         1.34473        -0.15167
C         14.64195         4.13260        -0.80480
C         13.43242         6.33408        -0.96717
C         13.46430         7.75131        -0.79103
C         14.69332         5.57457        -1.26310
C         14.71305         8.43163        -0.48173
C         13.40475        10.40355         0.20697
C         13.19958        11.57119         0.96661
C         14.71191         9.78538        -0.00771
C         15.12490        12.64569         1.13908
C         13.92654        14.78510         1.64302
C         13.74417        16.15103         1.38707
C         15.05420        14.07111         1.15858
C         14.84676        16.90136         0.88398
C         13.57642        18.99598         1.15415
C         14.78918        18.34246         0.80514
C         15.90919         1.94569        -0.46060
C         15.88184         3.34985        -0.92449
C         17.14480         1.28817        -0.35342
C         17.18199         4.11087        -1.00099
C         15.95421         6.29161        -0.83508
C         15.94021         7.70988        -0.59483
C         17.15030         5.58365        -0.82521
C         17.17922         8.41119        -0.48534
C         15.96075        10.50224         0.08995
C         16.07590        11.92764         0.40266
C         17.17548         9.82884        -0.27424
C         17.25661        12.67525         0.03410
C         16.11755        14.81024         0.58102
C         16.05504        16.23447         0.53961
C         17.27517        14.10767         0.14452
C         17.21717        16.97821         0.18156
C         15.94010        19.05962         0.40864
C         17.16801        18.40956         0.12154
C         18.40098         1.96129        -0.50879
C         18.42693         3.37712        -0.72386
C         19.63291         1.28683        -0.34765
C         19.63560         4.08904        -0.78518
C         18.40728         6.26217        -0.72089
C         18.41645         7.70713        -0.63202
C         19.59637         5.52232        -0.84479
C         19.63516         8.42362        -0.66530
C         18.41636        10.54071        -0.39781
C         18.43710        11.98338        -0.32388
C         19.62472         9.82913        -0.60900
C         19.64383        12.72370        -0.51700
C         18.45074        14.85860        -0.12714
C         18.44496        16.29967        -0.05138
C         19.64135        14.14839        -0.43598
C         19.65447        17.04762        -0.17339
C         18.35194        19.11595        -0.22827
C         19.61009        18.49300        -0.33768
C         20.87695         1.96641        -0.44069
C         20.88876         3.38367        -0.70326
C         22.11430         1.30073        -0.27262
C         22.12272         4.05850        -0.83734
C         20.83383         6.24246        -1.15364
C         20.95691         7.67717        -0.70002
C         22.13591         5.47909        -1.20940
C         22.01103         8.40036        -1.56315
C         20.91214        10.57156        -0.67988
C         20.88451        12.05189        -0.73012
C         22.15373         9.84129        -1.08875
C         22.07363        12.76432        -0.84925
C         20.85927        14.87642        -0.52832
C         20.86444        16.28110        -0.27519
C         22.09222        14.19229        -0.72090
C         22.12365        16.88973        -0.12643
C         20.74086        19.30525        -0.78666
C         22.07487        19.03058        -0.47854
C         23.34946         1.99410        -0.31368
C         23.35454         3.41190        -0.59212
C         24.58079         1.33504        -0.10299
C         24.59024         4.14112        -0.61511
C         23.40270         6.22846        -1.15980
C         23.35793         7.64862        -1.56857
C         24.59833         5.56810        -0.90724
C         24.66664         8.42639        -1.48987
C         23.38045        10.60513        -1.49317
C         23.33747        12.07863        -1.21919
C         24.66739         9.89743        -1.36967
C         24.59983        12.71842        -0.77272
C         23.30556        14.93234        -0.81123
C         23.31000        16.32374        -0.60564
C         24.59004        14.23036        -0.66119
C         24.50665        17.14572        -0.91244
C         23.33831        19.44309        -0.98163
C         24.53556        18.64863        -0.85671
C         25.81756         2.03460        -0.09309
C         25.80489         3.47356        -0.33734
C         27.01825         1.33337         0.10624
C         27.03307         4.20142        -0.36515
C         25.86152         6.30116        -0.91846
C         25.87473         7.67871        -1.11882
C         27.08706         5.57274        -0.65231
C         27.13200         8.45257        -1.11142
C         25.86878        10.60389        -1.10823
C         25.88305        12.04143        -0.90625
C         27.07506         9.90559        -0.91174
C         27.05660        12.77242        -0.64728
C         25.85632        14.93365        -0.74127
C         25.83248        16.38257        -1.00112
C         27.05184        14.22675        -0.59999
C         27.08355        17.11453        -0.80583
C         25.79539        19.24395        -0.96350
C         27.05178        18.53844        -0.85727
C         28.29965         2.01505         0.26481
C         28.28589         3.50897         0.01086
C         29.60017         1.31019         0.26612
C         29.56522         4.14329        -0.42301
C         28.37011         6.26290        -0.66205
C         28.41912         7.72165        -0.92017
C         29.56703         5.61177        -0.51569
C         29.63994         8.43570        -0.47691
C         28.23739        10.61591        -0.37189
C         28.30036        12.08643        -0.45681
C         29.52975         9.86871        -0.12196
C         29.49789        12.78140        -0.24278
C         28.29970        14.93952        -0.46917
C         28.27761        16.39864        -0.53913
C         29.50109        14.22859        -0.26792
C         29.47227        17.12612        -0.35720
C         28.27736        19.23093        -0.76016
C         29.49445        18.54435        -0.53134
C         30.81159         1.97871         0.19418
C         30.84581         3.39664        -0.26347
C         32.06659         1.35610         0.46577
C         32.09802         4.17840        -0.11748
C         30.88323         6.30144        -0.81931
C         30.83102         7.76219        -0.42477
C         32.10012         5.57935        -0.26624
C         32.05620         8.45684        -0.11843
C         30.75676        10.67045        -0.01651
C         30.74515        12.05957        -0.02649
C         31.99001         9.90432         0.21036
C         31.99346        12.81359         0.12782
C         30.74370        14.93513        -0.05138
C         30.68892        16.40808         0.04371
C         31.96089        14.27254         0.10682
C         32.00062        17.18004         0.02338
C         30.74596        19.24083        -0.56831
C         31.97694        18.58984        -0.42272
C         33.28187         2.06699         0.44610
C         33.28785         3.47180         0.15108
C         34.51130         1.41506         0.84191
C         34.55038         4.21644         0.11413
C         33.30631         6.33111        -0.06980
C         33.25934         7.77959        -0.06389
C         34.53335         5.68543         0.15287
C         34.54142         8.52273        -0.10748
C         33.25131        10.69175         0.36678
C         33.19985        12.15814         0.27285
C         34.53346        10.01612         0.02283
C         34.46579        12.88081         0.66596
C         33.23027        15.00036         0.13043
C         33.25147        16.41232        -0.06660
C         34.46443        14.31995         0.23071
C         34.46090        17.10532        -0.23934
C         33.21278        19.22205        -0.66318
C         34.44659        18.53284        -0.53087
C         35.71605         2.07904         0.93897
C         35.80947         3.49083         0.50009
C         36.93657         1.47270         1.42088
C         36.93843         4.29506         1.10003
C         35.77822         6.41077         0.32868
C         35.80537         7.82294         0.17668
C         36.98444         5.73774         0.65363
C         37.00067         8.56031         0.34364
C         35.78818        10.74318         0.28771
C         35.75613        12.14128         0.37204
C         37.00444        10.01375         0.31669
C         36.97246        12.86507         0.34258
C         35.69999        15.00885         0.12860
C         35.70166        16.41537        -0.11744
C         36.95493        14.30401         0.22711
C         36.93903        17.13233        -0.16652
C         35.66392        19.19385        -0.72443
C         36.91978        18.54819        -0.51720
C         38.14145         2.14039         1.42503
C         38.23962         3.53941         0.83844
C         39.36188         1.52629         1.88449
C         39.43229         4.34029         1.30250
C         38.19900         6.44618         0.77268
C         38.21796         7.86483         0.61471
C         39.42735         5.74592         1.13330
C         39.44680         8.59640         0.76833
C         38.22237        10.73185         0.42765
C         38.20974        12.15930         0.37252
C         39.45813        10.01898         0.60938
C         39.44717        12.88858         0.36492
C         38.17217        15.01307         0.14281
C         38.14960        16.43965         0.01161
C         39.43722        14.31059         0.22676
C         39.41421        17.17970         0.08566
C         38.10363        19.24564        -0.73643
C         39.39057        18.69723        -0.33655
C         40.52416         2.23488         1.99612
C         40.58340         3.66241         1.74329
C         41.76252         4.40821         1.98383
C         40.63203         6.47685         1.33200
C         40.65133         7.91045         1.09363
C         41.78781         5.77332         1.75688
C         41.84902         8.65850         1.17751
C         40.67830        10.74097         0.68106
C         40.67992        12.18163         0.48544
C         41.86700        10.02438         0.95522
C         41.88310        12.91372         0.41769
C         40.67208        15.01423         0.13529
C         40.69048        16.46295        -0.03872
C         41.87706        14.28720         0.22948
C         41.83914        17.17908        -0.31543
C         40.64431        19.25129        -0.84098
C         41.80862        18.54822        -0.72874
O         34.56538         9.40484        -1.31169
O         21.38052         5.84692        -2.43802
O         28.01686         8.09246        -2.28939
O         21.90226        10.07325         0.33973
O         10.38954        13.77407        -1.28067
O         24.09260         7.93708        -2.79558
O         31.28476        16.94248         1.28217
O          3.88980         8.27153        -1.86218
O          2.20845        14.05444        -1.49139
O         14.18161        11.94041         1.89548
O         28.28550         3.03949         1.38666
O         12.93701        14.07155         2.33456
O          8.24715        15.05713        -1.43612
O         22.21280        18.08223         0.56984
O         32.58491        10.15476         1.55985
O         23.30190        11.57193        -2.60030
O         25.06767        16.72737        -2.21434
O         11.01475         7.05679        -2.43438
O          6.17594         7.38212         0.79068
O         35.54245         3.70475        -0.89814
O          3.91871         3.64560        -1.39052
O         11.67012        16.29423         2.75827
O         16.53834         3.58800        -2.23656
O         39.42799        18.25669         1.06042
O         28.58935        10.10007         0.99279
O         24.47643        13.35112         0.53914
O          2.47468         9.37098         1.24315
O         30.21441         3.53461        -1.60889
O          7.64889         8.21733        -2.39745
O          6.15096        16.31150        -1.18721
O         36.69802         4.31386         2.53244
H         37.43778         4.79559         2.95946
O         14.74666         5.53426        -2.73132
H         15.45053         4.87820        -2.96838
O         31.03693         6.24487        -2.27042
H         30.88534         5.30607        -2.53173
O         21.51278         8.46774        -2.90795
H         22.27532         8.32895        -3.51537
O         34.42428        12.91294         2.14185
H         33.58348        13.34427         2.40655
O         21.44716         7.54854         0.65882
H         21.55385         8.46444         1.02221
O          8.62358         3.01146         1.83636
H          8.68955         2.31473         2.52232
O         38.37407         3.40232        -0.59920
H         39.20297         2.91369        -0.78203
O          8.40265         2.78398        -1.81406
H          8.36014         3.46981        -2.51306
O          4.56369        18.17014        -0.50995
H          4.82865        17.66428        -1.31519
H          0.33358         1.85448         1.66537
H          0.20813         4.22605         1.03490
H          2.43905         0.56271         1.48525
H          0.07067         5.96360         0.00466
H          0.02391         8.38999        -0.00393
H          0.11353        10.40665         0.09135
H          0.12633        12.79833        -0.39761
H          0.19228        14.67307         0.34641
H          0.43267        16.65986         1.79166
H          1.73175        18.47718         2.67913
H          4.85154         0.50743         0.96611
H          3.88728        19.63100         3.07457
H          7.24490         0.54467         0.95524
H          6.32460        19.71920         2.74067
H          9.80279         0.48676         0.69646
H          8.71596        19.93580         2.30922
H         12.20121         0.37092         0.29120
H         11.17086        20.03918         1.82420
H         14.64872         0.28406         0.14087
H         13.52848        20.09374         1.09169
H         17.15591         0.22460        -0.07076
H         15.89197        20.15784         0.36070
H         19.63041         0.20506        -0.14679
H         18.28898        20.20662        -0.36007
H         22.11867         0.21702        -0.08174
H         20.50132        20.17701        -1.41487
H         24.58231         0.25193         0.09124
H         23.43439        20.42534        -1.47057
H         26.99471         0.23380         0.14354
H         25.84656        20.34258        -1.01551
H         29.59476         0.22845         0.47181
H         28.28975        20.32708        -0.85044
H         32.07658         0.29344         0.75135
H         30.73773        20.31219        -0.81965
H         34.45571         0.35413         1.13120
H         33.22624        20.28418        -0.95065
H         36.89416         0.43266         1.78235
H         35.65996        20.26265        -0.98585
H         39.33856         0.46247         2.16578
H         38.07041        20.24312        -1.20022
H         41.43878         1.73649         2.34922
H         42.66649         3.89145         2.33656
H         42.72659         6.31528         1.93168
H         42.79719         8.15607         1.40991
H         42.82749        10.55187         1.02399
H         42.85054        12.40097         0.49813
H         42.83972        14.81241         0.17574
H         42.81041        16.66762        -0.35941
H         40.62641        20.23257        -1.33731
H         42.75056        19.00110        -1.06987
