         324
 CSIRO Nanostructure Databank - Neutral Graphene Oxide Data Set
C          1.40822         2.01385         0.31586
C          1.33442         3.39116         0.05534
C          2.63112         1.36923         0.27785
C          2.48349         4.13571        -0.24658
C          1.19032         6.35724        -0.21152
C          1.19202         7.71211        -0.26220
C          2.36565         5.57075        -0.61438
C          2.39999         8.47580        -0.50370
C          1.21063        10.65940        -0.63786
C          1.19551        12.07075        -0.60335
C          2.36290         9.92850        -0.40858
C          2.35833        12.83624        -0.39102
C          1.27076        15.00229        -1.09106
C          1.32445        16.38711        -1.25270
C          2.34217        14.27083        -0.54320
C          2.49369        17.13965        -0.95931
C          2.56083        18.56159        -1.15003
C          3.82021         2.09649        -0.00305
C          3.75520         3.50447        -0.26465
C          5.06336         1.42662        -0.00606
C          4.97981         4.24935        -0.51094
C          3.66444         6.35270        -0.86008
C          3.60796         7.81902        -0.69798
C          4.94665         5.62978        -0.71256
C          4.85228         8.61340        -0.80013
C          3.58629        10.64209         0.11292
C          3.60444        12.13545        -0.14330
C          4.87570         9.98238        -0.29984
C          4.81782        12.79971        -0.04638
C          3.52749        15.03495        -0.13506
C          3.63697        16.46767        -0.46427
C          4.81362        14.26155         0.10718
C          4.84647        17.16914        -0.24350
C          3.70318        19.26201        -0.86165
C          4.89430        18.59324        -0.41619
C          6.27512         2.11988        -0.20846
C          6.25480         3.53835        -0.46777
C          7.50420         1.42910        -0.09544
C          7.48415         4.21833        -0.59460
C          6.20997         6.34313        -1.15078
C          6.20000         7.87051        -0.95708
C          7.48061         5.66687        -0.69238
C          7.37686         8.57978        -0.45433
C          6.07939        10.66806        -0.20035
C          6.08662        12.09779         0.02881
C          7.34152         9.95467        -0.21841
C          7.29568        12.76966         0.24343
C          6.08887        15.00701        -0.04707
C          6.05351        16.48041         0.09810
C          7.36164        14.24363         0.14571
C          7.23895        17.16420         0.32328
C          6.10059        19.27545        -0.19263
C          7.28211        18.59656         0.19384
C          8.73205         2.10999        -0.17449
C          8.72658         3.52293        -0.41364
C          9.97466         1.45490         0.04621
C          9.97355         4.20025        -0.47450
C          8.63767         6.37645        -0.54897
C          8.57411         7.78724        -0.00836
C          9.93205         5.66669        -0.66015
C          9.83957         8.59932        -0.05416
C          8.54322        10.67217         0.17521
C          8.53503        12.06135         0.37887
C          9.79016         9.94523         0.23006
C          9.76276        12.80283         0.71187
C          8.55473        14.96094         0.64631
C          8.43440        16.43324         0.81555
C          9.70803        14.26138         0.91046
C          9.69789        17.23683         1.04252
C          8.52187        19.29185         0.29798
C          9.73056        18.64495         0.58504
C         11.20952         2.10369        -0.05006
C         11.21469         3.52521        -0.37891
C         12.37438         1.34118         0.39749
C         12.43650         4.32488        -0.34756
C         11.20066         6.45696        -0.49447
C         11.13916         7.92816        -0.24594
C         12.42524         5.72090        -0.14956
C         12.38564         8.59798         0.22210
C         10.97134        10.65345         0.79063
C         10.94680        12.12300         0.90698
C         12.27394         9.91624         0.91333
C         12.15329        12.81550         1.52864
C         10.96952        14.97961         1.25813
C         10.99121        16.49816         1.21127
C         12.25243        14.26699         1.08296
C         12.24152        17.15826         0.78371
C         10.98241        19.28232         0.44814
C         12.21390        18.59482         0.52120
C         13.67245         1.60569         0.01305
C         13.72343         3.72173        -0.42878
C         14.94177         1.20479         0.53624
C         14.89848         4.28184         0.07178
C         13.62146         6.40590         0.22178
C         13.61861         7.81307         0.44533
C         14.84927         5.68527         0.38320
C         14.78529         8.51362         0.76618
C         13.54550        10.63997         1.10725
C         13.48705        12.06432         1.44000
C         14.75219         9.95839         0.98261
C         14.78330        12.85224         1.17665
C         13.44165        14.97619         0.88589
C         13.39919        16.42207         0.63826
C         14.71405        14.29234         0.85075
C         14.62593        17.13632         0.21373
C         13.43109        19.29203         0.33517
C         14.66303        18.62089         0.25303
C         16.10025         2.00982         0.46937
C         16.10682         3.48400         0.31531
C         17.35419         1.35771         0.68562
C         17.26905         4.17711         0.61154
C         16.03907         6.40189         0.64808
C         16.02880         7.80549         0.81021
C         17.30867         5.65376         0.54542
C         17.24549         8.55099         0.98873
C         16.00036        10.68818         0.92206
C         15.96499        12.07531         0.79333
C         17.25484         9.94947         0.92001
C         17.14444        12.79502         0.31281
C         15.92202        14.95204         0.51202
C         15.92001        16.40251         0.17488
C         17.12212        14.26555         0.31397
C         17.19945        17.17981         0.43141
C         15.88506        19.29039         0.05157
C         17.13829        18.62556        -0.00962
C         18.56582         2.03053         0.88744
C         18.48772         3.49454         1.09277
C         19.81975         1.38296         0.91114
C         19.77550         4.25600         1.35808
C         18.58666         6.39482         0.83862
C         18.49596         7.82658         1.21890
C         19.84881         5.69866         1.13738
C         19.83642         8.59016         1.17461
C         18.50998        10.64908         0.82401
C         18.46731        12.04754         0.35211
C         19.75182        10.01636         0.86684
C         19.70795        12.87626         0.59089
C         18.33868        14.97993        -0.11920
C         18.41670        16.45239        -0.07611
C         19.64032        14.22764        -0.10273
C         19.59427        17.13411        -0.32725
C         18.33276        19.28006        -0.30894
C         19.58931        18.59163        -0.40728
C         21.05598         2.05534         1.07749
C         21.06936         3.50200         1.43701
C         22.26752         1.40207         0.82342
C         22.35956         4.27949         1.34446
C         21.06883         6.40821         1.02110
C         21.04622         7.82774         0.83627
C         22.33715         5.72622         1.00103
C         22.19638         8.51362         0.37836
C         20.96766        10.70135         0.44239
C         20.95826        12.09810         0.28384
C         22.14820         9.93508         0.19182
C         22.04535        12.75640        -0.47813
C         20.93534        14.99634        -0.10766
C         20.84736        16.43417        -0.54234
C         21.93119        14.18234        -0.90709
C         22.02857        17.09863        -0.79581
C         20.80184        19.25222        -0.60277
C         22.04115        18.54497        -0.73959
C         23.52878         2.06548         0.77234
C         23.62444         3.50890         1.10162
C         24.69527         1.39578         0.43295
C         24.88782         4.25816         0.76889
C         23.49793         6.41161         0.58612
C         23.41549         7.77497         0.21393
C         24.89264         5.78787         0.72861
C         24.58201         8.42945        -0.41515
C         23.40336        10.65870        -0.09361
C         23.39279        12.12963        -0.38155
C         24.56575         9.92502        -0.65962
C         24.54055        12.77047        -1.07689
C         23.14819        14.87688        -1.42748
C         23.28220        16.38364        -1.24010
C         24.30682        13.99370        -1.64169
C         24.60848        17.05427        -1.01450
C         23.28070        19.17202        -0.62546
C         24.51797        18.44761        -0.54966
C         25.93097         2.07844         0.15535
C         25.99528         3.50058         0.15242
C         27.08323         1.34002        -0.19310
C         27.14100         4.16641        -0.34373
C         25.94386         6.36161        -0.21662
C         25.85354         7.69913        -0.53076
C         27.14301         5.61566        -0.52134
C         27.00195         8.45191        -1.08147
C         25.82053        10.70863        -0.86811
C         25.84309        12.07960        -1.07177
C         27.05563         9.91813        -0.74715
C         27.14261        12.81003        -1.15316
C         26.15739        15.11498        -1.59975
C         25.86954        16.45722        -1.10246
C         27.19869        14.28109        -1.21078
C         27.04824        17.16631        -0.52299
C         25.61214        19.10096         0.01233
C         26.85814        18.43627         0.22724
C         28.26347         1.99111        -0.57819
C         28.26857         3.40445        -0.71304
C         29.49115         1.25174        -0.79117
C         29.45976         4.06118        -1.34910
C         28.31083         6.26313        -0.98700
C         28.28671         7.71423        -1.30169
C         29.53564         5.54881        -1.12189
C         29.58505         8.47725        -1.35110
C         28.35698        10.65192        -0.73125
C         28.33272        12.11790        -0.93155
C         29.62104         9.89987        -0.96217
C         29.72268        12.75241        -1.06145
C         28.44574        14.98074        -0.81931
C         28.31118        16.38779        -0.31008
C         29.72882        14.24091        -0.66299
C         29.27553        16.80931         0.75206
C         27.88601        18.97732         0.96224
C         29.08510        18.19427         1.33665
C         30.68608         1.89637        -0.97951
C         30.74874         3.31926        -1.10835
C         31.94961         4.01556        -1.17437
C         30.79350         6.18923        -1.21390
C         30.87935         7.68155        -1.26638
C         31.97086         5.42134        -1.26399
C         32.05197         8.39237        -0.73790
C         30.81979        10.51812        -0.66614
C         30.79850        11.94730        -0.35421
C         32.03202         9.73580        -0.54063
C         31.75035        12.55099         0.41720
C         30.75090        14.79396         0.27671
C         30.61074        16.16131         0.78987
C         31.71872        13.94742         0.75206
C         31.62959        16.83325         1.42590
C         30.29426        18.85430         1.84081
C         31.47360        18.17624         1.91181
O         13.80041         2.49652        -1.07746
O          4.01506        14.72358         1.23370
O         15.22494        16.65553        -1.07314
O         27.72939        10.18713         0.54481
O         18.84915         3.90583         2.46505
O         21.52464        13.13133        -1.82427
O          5.55246         8.51070        -2.09926
O         28.68797        16.95802         2.08214
O         28.20193        17.31361        -1.43838
O         18.16516         6.16370        -0.56753
O          8.79140        16.96019         2.14637
O         21.79577         3.89197         2.64658
O         18.94276        14.35726        -1.34106
O         14.34429        12.48328         2.54591
O         29.49366        15.02867        -1.88096
O         11.02339        15.79316         2.48597
O          6.89709        14.64785        -1.22039
O         25.35240         6.23939         2.03408
O         19.20029         8.17360         2.43335
O         24.19605         9.03206        -1.73963
O         27.40237         8.07279        -2.43194
O         23.72894        11.64444         0.95681
O         12.00369         8.67444        -1.19390
O         30.38199         8.19785        -2.54997
O         22.97460        15.79304        -2.55389
O         11.37855         9.96624         2.06784
O          2.83027         5.85198        -1.97166
O         17.76736        12.19408        -0.89840
O         25.24875        14.54844        -2.50135
O         10.70546         6.11714        -1.83776
O         30.06445        12.65321        -2.46653
H         29.80962        13.51607        -2.87654
O          6.24253         6.10940        -2.59303
H          5.70487         6.82552        -3.00759
O         11.82001        12.89209         2.94163
H         12.66564        13.03411         3.42621
O         17.31823        17.19542         1.89568
H         18.11402        17.72001         2.12706
O          3.50882        10.50365         1.58639
H          2.78657        11.09084         1.89679
O         29.22484         3.93401        -2.81409
H         29.90510         4.48035        -3.26421
O         19.70362        13.19546         2.03735
H         19.93552        12.37711         2.52848
O         21.49014        15.06154         1.24040
H         20.96379        14.46490         1.83181
O         24.63018         3.77806         2.14168
H         25.05981         5.55561         2.68424
O          8.37324         7.53210         1.44854
H          8.46336         8.39096         1.91742
H          0.48977         1.45205         0.53374
H          0.34899         3.87580         0.05777
H          2.69982         0.28908         0.46991
H          0.29079         5.83477         0.14333
H          0.28139         8.25901         0.02041
H          0.28303        10.14215        -0.92355
H          0.24374        12.57890        -0.80840
H          0.35500        14.47872        -1.39977
H          0.44641        16.91209        -1.65561
H          1.66799        19.08650        -1.51958
H          5.09026         0.34597         0.19856
H          3.72999        20.35334        -0.99519
H          7.49304         0.34681         0.10108
H          6.13705        20.36526        -0.34031
H          9.95694         0.38771         0.31372
H          8.54222        20.36200         0.04175
H         12.18400         0.53590         1.12317
H         10.99863        20.35186         0.18926
H         15.04079         0.20778         0.99393
H         13.40535        20.38833         0.24382
H         17.36719         0.25708         0.66079
H         15.86606        20.38392        -0.07892
H         19.84818         0.30201         0.70371
H         18.31143        20.35871        -0.52935
H         22.24139         0.33207         0.56601
H         20.82324        20.35256        -0.61363
H         24.66393         0.30641         0.28076
H         23.31534        20.25452        -0.42914
H         27.05744         0.24171        -0.14090
H         25.48482        20.12648         0.39019
H         29.46219         0.15643        -0.69820
H         27.76847        19.98077         1.39976
H         31.62397         1.32186        -1.01622
H         32.90147         3.46688        -1.12103
H         32.94283         5.92880        -1.32962
H         32.95813         7.81994        -0.49258
H         32.94471        10.24027        -0.19326
H         32.54590        11.94570         0.87514
H         32.46727        14.31460         1.46789
H         32.62750        16.37797         1.49824
H         30.24095        19.91654         2.12055
H         32.36553        18.68249         2.30792
