         324
 CSIRO Nanostructure Databank - Neutral Graphene Oxide Data Set
C          1.57842         3.56070         1.14508
C          0.43309         4.23282         1.51907
C          1.49726         6.39467         1.07376
C          0.38979         5.63857         1.48240
C          1.46035         7.85216         1.01952
C          0.29581         8.53516         1.42611
C          1.28563        10.66854         0.84815
C          0.20798         9.91280         1.33958
C          1.12636        12.12809         0.66833
C          0.02695        12.87072         1.28716
C          1.23074        14.98754         1.00576
C          0.04213        14.23349         1.29004
C          1.16709        16.46802         1.14759
C          0.00500        17.22591         0.60915
C          1.21206        19.34002         0.98902
C         -0.00835        18.57298         0.60647
C          1.24079        20.86827         1.03700
C          0.00200        21.65026         0.89778
C          1.25394        23.70453         0.35701
C          0.02792        22.97160         0.59837
C          1.24016        25.10068         0.20832
C          0.08996        25.95200         0.33623
C          1.38183        28.01587        -0.17218
C          0.15070        27.30413         0.08261
C          1.28766        29.38321        -0.68535
C          3.89428         3.61170         0.33018
C          2.72830         4.28833         0.72274
C          3.84397         6.46035         0.27097
C          2.69391         5.72337         0.68855
C          3.80628         7.90419         0.18102
C          2.58120         8.59589         0.55803
C          3.66363        10.80364         0.10981
C          2.49407        10.02073         0.48851
C          3.65721        12.17940         0.14555
C          2.40289        12.93124         0.34801
C          3.73630        14.99635         0.89547
C          2.43757        14.35104         0.72679
C          3.74357        16.40021         1.40677
C          2.46064        17.19074         1.29121
C          3.73437        19.37459         1.09239
C          2.51068        18.58171         0.67914
C          3.71633        20.76800         0.53994
C          2.49505        21.56594         0.69117
C          3.74788        23.60460         0.13540
C          2.50636        22.94222         0.34048
C          3.76675        25.00185        -0.28622
C          2.47087        25.79122        -0.20659
C          3.85557        27.86345        -0.24406
C          2.56097        27.26227        -0.10770
C          3.66711        29.89506        -1.16062
C          2.24369        30.17187        -1.27354
C          6.20669         3.63086        -0.45847
C          5.04013         4.32589        -0.07542
C          6.20201         6.47984        -0.49268
C          5.02240         5.76603        -0.09222
C          6.17176         7.93778        -0.57314
C          4.93149         8.60722        -0.27536
C          6.06590        10.85922        -0.86746
C          4.84080        10.07984        -0.44657
C          6.14432        12.33398        -0.53193
C          4.87092        13.00299        -0.08194
C          6.24431        14.90693         0.87231
C          4.90769        14.32578         0.60638
C          6.32293        16.38206         1.29716
C          5.04500        17.15538         1.52117
C          6.33607        19.39596         1.14756
C          5.02687        18.67851         1.40320
C          6.31925        20.77573         0.59097
C          5.03982        21.44850         0.31815
C          6.38721        23.64253         0.12455
C          5.03109        22.93199         0.36858
C          6.37395        25.10233        -0.25081
C          5.04453        25.77862        -0.31695
C          6.02767        27.83679        -1.57977
C          4.96453        27.20359        -0.70935
C          6.03825        29.38223        -1.63467
C          4.76016        30.08144        -1.95066
C          8.57013         3.62339        -1.09317
C          7.37159         4.33044        -0.82074
C          8.55751         6.48460        -1.38757
C          7.35303         5.76640        -0.83647
C          8.60584         7.93898        -0.98945
C          7.36416         8.64537        -0.84376
C          8.65404        10.87243        -0.95776
C          7.34863        10.11299        -1.27060
C          8.65494        12.23368        -0.35615
C          7.45659        12.93858        -0.16127
C          8.70998        14.94370         0.50524
C          7.48136        14.26752         0.35625
C          8.74287        16.38229         0.73756
C          7.56426        17.09010         0.97803
C          8.75518        19.17588         0.29107
C          7.58966        18.56383         0.99638
C          8.70400        20.61695        -0.04468
C          7.49140        21.43455         0.20370
C          8.71630        23.39676        -0.78488
C          7.54959        22.80910        -0.17293
C          8.68196        24.78244        -1.29059
C          7.57296        25.74638        -0.93529
C          8.45972        28.04362        -2.24126
C          7.43571        27.19752        -1.41592
C          8.49838        29.38778        -1.57179
C          7.21357        30.07291        -1.58406
C         11.03058         3.57007        -1.11243
C          9.81700         4.29831        -1.15558
C         11.05971         6.40034        -1.02045
C          9.84061         5.72746        -1.15984
C         11.08028         7.86043        -0.90625
C          9.84046         8.58695        -0.91958
C         11.14386        10.67788        -0.28446
C          9.91823        10.06505        -0.84050
C         11.14697        12.09815        -0.02306
C          9.91089        12.84549        -0.04688
C         11.19016        14.90000         0.42583
C          9.94303        14.23690         0.28824
C         11.27262        16.33209         0.88773
C         10.00124        17.08596         0.64498
C         11.26908        19.14898         0.18771
C         10.05216        18.46358         0.42674
C         11.27218        20.59635        -0.09610
C          9.97961        21.35913        -0.21712
C         11.06974        23.09994        -1.69691
C          9.87129        22.62311        -0.97650
C         11.10338        24.54078        -2.06603
C          9.77609        25.18458        -2.01048
C         10.94928        27.74917        -1.67809
C          9.79203        27.38947        -2.28305
C         10.93310        29.10949        -1.10530
C          9.66828        29.84575        -1.04401
C         13.51051         3.50822        -0.93657
C         12.25645         4.23330        -0.94011
C         13.49549         6.33897        -0.48347
C         12.25052         5.64809        -0.84382
C         13.57816         7.78991        -0.93605
C         12.28663         8.53367        -0.68590
C         13.57964        10.50907         0.16435
C         12.31031         9.91382        -0.30072
C         13.60691        11.99596         0.43796
C         12.36450        12.76322         0.23280
C         13.66066        14.88033         0.44634
C         12.40692        14.18628         0.34823
C         13.72227        16.29992         0.32175
C         12.50756        17.03616         0.37575
C         13.72083        19.08360        -0.27080
C         12.50212        18.42240         0.11513
C         13.65431        20.44279        -0.73577
C         12.46679        21.16918        -0.70933
C         13.60127        23.21437        -1.58808
C         12.37153        22.32085        -1.68443
C         13.60710        24.64653        -1.45169
C         12.35340        25.39723        -1.90219
C         13.30746        27.54012        -0.85051
C         12.22137        26.90679        -1.69277
C         13.42429        29.05872        -0.98134
C         12.09327        29.72648        -0.75455
C         15.94525         3.29660        -0.99969
C         14.73908         4.08427        -0.70160
C         16.02107         6.32627        -0.47869
C         14.76601         5.54156        -0.33170
C         16.05262         7.77078        -0.57760
C         14.83971         8.49432        -0.49957
C         16.09623        10.53595         0.05072
C         14.86484         9.84255        -0.13096
C         16.10934        11.96836         0.29960
C         14.91806        12.67521         0.42978
C         16.22905        14.87261         0.51468
C         14.90475        14.12733         0.63687
C         16.21176        16.28670         0.08503
C         14.96182        16.98051         0.04796
C         16.15419        19.02465        -0.75863
C         14.95315        18.36913        -0.30463
C         16.00451        20.28059        -1.36103
C         14.82066        21.04917        -1.33195
C         16.43447        23.52192        -0.99725
C         14.75935        22.43296        -1.69891
C         15.95107        24.72861        -0.43992
C         14.69196        25.33578        -0.85057
C         15.60040        27.46659         0.25852
C         14.48911        26.74030        -0.39866
C         15.47390        28.88507         0.50015
C         14.45558        29.64001        -0.07624
C         18.53127         3.13895        -0.77501
C         17.17728         3.55752        -0.45303
C         18.48987         6.19173        -0.58842
C         17.19643         5.69783        -0.17701
C         18.54634         7.73404        -0.64652
C         17.28747         8.45684        -0.42248
C         18.60645        10.50909        -0.01598
C         17.32137         9.83729        -0.13062
C         18.62329        11.92736         0.14503
C         17.38803        12.66351         0.25925
C         18.66415        14.77532         0.16854
C         17.43236        14.06587         0.26181
C         18.65105        16.20492         0.06952
C         17.42709        16.91739        -0.18663
C         18.76418        19.07427        -0.37450
C         17.49822        18.28246        -0.85878
C         18.84408        20.63300        -0.28949
C         17.79586        21.46197        -0.87203
C         18.28764        23.32575         0.63755
C         17.49313        22.74584        -0.41966
C         17.99280        24.66827         1.03069
C         16.84776        25.36090         0.50020
C         17.61185        27.42034         1.68635
C         16.67219        26.75292         0.82272
C         17.45823        28.81995         1.95816
C         16.41603        29.53307         1.34631
C         19.63889         3.93792        -0.59175
C         20.89371         6.08738        -0.31820
C         19.70318         5.37898        -0.40453
C         20.94749         7.51237        -0.22174
C         19.83635         8.34268        -0.31132
C         21.04833        10.49158         0.05652
C         19.82983         9.78133        -0.07708
C         21.06798        11.86654         0.18355
C         19.86919        12.62152         0.20559
C         21.09101        14.81511         0.38911
C         19.89425        14.06721         0.25194
C         21.06133        16.19759         0.47297
C         19.85358        16.91419         0.30315
C         20.75973        19.07070         1.10770
C         19.80009        18.36201         0.40708
C         20.66827        20.46561         1.34190
C         19.68851        21.24481         0.75130
C         20.19111        23.25943         2.14215
C         19.39228        22.60964         1.17513
C         19.93641        24.57009         2.51310
C         18.86695        25.30777         1.96541
C         19.54169        27.38859         3.18218
C         18.67677        26.70847         2.30010
C         19.38109        28.75538         3.44868
C         18.36372        29.47210         2.84313
O          4.29891        20.86631        -0.83059
O         18.49614         6.91827        -1.85878
O          5.84601        23.42851         1.46854
O          3.94968        29.22280         0.04475
O          5.86146        25.82361         0.91447
O         17.16599         4.52686         0.57833
O         13.97979         5.97029         0.84137
O         10.74556        21.46201         1.03279
O         15.91862        23.07089        -2.20697
O         12.63043        26.36516        -2.98048
O         10.91981        23.53567        -3.13161
O          7.98185        26.91016        -0.11373
O          5.03144        10.54692        -1.84611
O          1.41833        12.60099        -0.68372
O          4.20554        19.28717         2.45336
O          1.60778        17.01884         2.44706
O          5.35591        13.13343        -1.47464
O          1.24192        20.01637         2.26164
O         13.49547        11.01188         1.54028
O          9.67701        26.18917        -2.97579
O          2.98413        25.27382        -1.50123
O          8.46452        19.59621        -1.09300
O         13.26208        26.97696         0.48905
O         15.64497        14.59762         1.83269
O          9.56361        10.77183        -2.09837
O         19.46045        19.85483        -1.38639
O         17.14728        20.88869        -1.95993
O          4.36862        16.64265         2.70101
O          6.46339        15.30867         2.26931
O          7.27217        19.21457         2.27000
O         12.46112        21.61251        -2.96323
H         12.07790        22.20858        -3.64934
O          8.37270         6.51269        -2.85623
H          7.87349         7.32948        -3.07661
O         11.42480        16.26965         2.35948
H         12.26015        15.78886         2.54620
O         17.72928        18.01876        -2.26467
H         18.08423        18.84890        -2.65762
O          8.01154        28.19082        -3.61265
H          8.40192        27.44765        -4.12414
O         13.68475         7.67277        -2.39655
H         13.61730         8.57057        -2.78433
O          7.31753         9.99761        -2.71789
H          6.36691        10.01288        -2.98309
O          5.59515        27.40255        -2.90897
H          6.22763        27.80660        -3.55466
O          2.61701        18.37703        -0.75183
H          2.95942        19.19776        -1.17244
O         13.83474        29.32408        -2.36328
H         13.19418        28.87834        -2.95843
H          1.61876         2.46249         1.16633
H         -0.45592         3.67518         1.84450
H         -0.54529         6.12918         1.78095
H         -0.57370         7.98150         1.80036
H         -0.72832        10.40527         1.63116
H         -0.83041        12.33653         1.71788
H         -0.82744        14.78413         1.67649
H         -0.87663        16.66116         0.27106
H         -0.90267        19.11760         0.26846
H         -0.95277        21.15112         1.11353
H         -0.92380        23.51814         0.54179
H         -0.88305        25.51053         0.59385
H         -0.78164        27.88819         0.10889
H          0.24709        29.73631        -0.78638
H          3.91864         2.51226         0.34352
H          1.91311        31.07048        -1.81792
H          6.21307         2.53123        -0.43946
H          4.71520        30.69043        -2.86673
H          8.55315         2.52330        -1.08997
H          7.20220        31.17383        -1.58863
H         11.00186         2.47133        -1.15689
H          9.69550        30.83210        -0.55679
H         13.46644         2.43819        -1.19220
H         12.07684        30.76383        -0.38858
H         15.83743         2.48123        -1.73138
H         14.41061        30.71984         0.13024
H         18.69108         2.11454        -1.14686
H         16.30499        30.60966         1.54064
H         20.61874         3.45999        -0.76074
H         21.84346         5.53584        -0.24977
H         21.93405         7.95427        -0.02044
H         22.00132         9.94673         0.02091
H         22.03869        12.37584         0.24581
H         22.05810        14.30243         0.47575
H         22.00081        16.74592         0.62657
H         21.55388        18.51867         1.62926
H         21.35298        20.90162         2.08127
H         21.04692        22.74048         2.59239
H         20.60432        25.03630         3.24848
H         20.36544        26.85630         3.67479
H         20.07465        29.25614         4.13826
H         18.23726        30.54536         3.04316
