         280
 CSIRO Nanostructure Databank - Neutral Graphene Oxide Data Set
C         30.43645        31.72846         1.37376
C         30.59029        32.72535         2.09888
C         30.57401        35.96020         2.28033
C         30.51509        37.15780         2.00707
C         30.25829        40.32126         1.06225
C         30.33486        41.58664         1.09673
C         32.57743        28.87946         0.09852
C         31.55592        29.56553         0.24911
C         32.85734        31.35717         1.30290
C         31.46482        30.70281         1.17260
C         33.01595        32.80423         1.77618
C         31.76851        33.56462         2.30792
C         32.89230        35.81100         1.68253
C         31.73551        35.06083         2.34683
C         32.81142        37.27412         1.31437
C         31.58788        38.11058         1.68902
C         32.66937        40.23445         0.56432
C         31.49885        39.53659         1.26663
C         32.62900        41.74111         0.42510
C         31.36102        42.49279         0.85293
C         32.66883        44.54112         0.78873
C         31.60626        43.87261         0.88386
C         35.18905        27.33746        -1.28748
C         35.12724        28.59406        -0.51322
C         33.98973        29.24492         0.19354
C         35.26979        31.54785         0.23665
C         34.10216        30.70900         0.68958
C         35.09744        33.08501         0.17637
C         34.21311        33.60630         1.33914
C         35.44773        35.91906         1.43158
C         34.21854        35.10136         1.64974
C         35.36841        37.48519         1.52741
C         34.07129        38.04044         0.92918
C         35.27678        40.32255         0.40005
C         33.99459        39.49497         0.53801
C         35.24754        41.82999         0.53596
C         33.92485        42.53770         0.47492
C         35.15758        44.78284         0.29426
C         33.87487        44.03555         0.00701
C         35.35906        46.16405        -0.16370
C         37.59360        27.19259        -1.79273
C         36.21428        26.73262        -1.61073
C         37.60942        28.68957        -1.39234
C         36.34664        29.41224        -0.94110
C         37.62263        31.69674        -0.81633
C         36.34126        30.93018        -0.64042
C         37.70656        33.22353        -0.58387
C         36.42252        33.89885         0.02372
C         37.91374        35.89262         0.96120
C         36.55343        35.28215         0.61741
C         37.91609        37.42663         0.73013
C         36.65108        38.18418         1.02903
C         37.89106        40.39895         0.59005
C         36.59266        39.62000         0.53536
C         37.84996        41.90598         0.40826
C         36.51043        42.58167         0.03766
C         37.86834        44.85929         0.25592
C         36.50809        44.08702         0.36199
C         37.80153        46.39124        -0.23483
C         36.40431        46.80675        -0.26178
C         40.33874        24.34605        -1.89054
C         39.25747        25.07389        -1.90051
C         40.26450        27.16985        -0.79320
C         38.83225        26.39323        -1.95112
C         40.23952        28.64407        -1.21117
C         38.91650        29.37958        -1.03783
C         40.24512        31.58367        -0.85051
C         38.91149        30.86870        -0.78561
C         40.26791        33.05233        -0.59672
C         39.03349        33.70912        -0.02096
C         40.22978        35.91308        -0.31841
C         39.13137        35.15036         0.38500
C         40.14157        37.37649        -0.62834
C         38.85466        38.16199        -0.26779
C         40.14629        40.34209        -0.63122
C         39.09427        39.62173         0.15600
C         40.14817        41.82735        -0.77662
C         39.07584        42.63411        -0.08425
C         40.15097        44.75423        -1.09212
C         38.93337        44.07572        -0.52317
C         40.25093        46.27560        -1.31385
C         38.97799        47.04793        -0.86603
C         40.23168        49.01185        -1.42541
C         39.15012        48.41285        -1.43484
C         42.88540        24.61126        -1.76732
C         41.54585        25.03800        -1.64919
C         42.72420        27.07116        -0.78101
C         41.56812        26.43392        -1.16736
C         42.65284        28.48978        -0.19481
C         41.53470        29.33103        -0.88179
C         42.76119        31.49432        -0.11124
C         41.48330        30.78841        -0.48931
C         42.82271        33.01371        -0.00938
C         41.53576        33.74256        -0.16078
C         42.80894        35.90565        -0.84227
C         41.53719        35.18604        -0.55120
C         42.79543        37.41105        -0.91931
C         41.43219        38.11527        -0.95676
C         42.66609        40.33874        -0.36628
C         41.44213        39.60838        -0.89090
C         42.63979        41.84076        -0.45069
C         41.47827        42.44574        -1.28382
C         42.76130        44.74411        -1.17272
C         41.45718        44.00052        -1.30531
C         42.79723        46.19613        -0.73686
C         41.50666        46.97628        -0.74037
C         42.88016        49.00178        -1.07841
C         41.51313        48.54109        -0.87915
C         43.98530        24.99135        -1.28814
C         45.24265        26.96068        -0.07983
C         44.00055        26.29245        -0.59229
C         45.27460        28.48161         0.11931
C         44.01266        29.23428        -0.25912
C         45.31498        31.50996         0.09487
C         44.05662        30.73847        -0.25734
C         45.37665        32.94685        -0.39320
C         44.15578        33.79986        -0.05681
C         45.42948        35.92497        -0.82671
C         44.13000        35.15916        -0.78640
C         45.32864        37.36908        -0.34657
C         44.06151        38.16776        -0.63005
C         45.23170        40.37339        -0.16206
C         43.93906        39.55026         0.05322
C         45.19963        41.86995         0.06171
C         43.92294        42.61398        -0.21671
C         45.35297        44.66138        -0.96229
C         44.03257        43.95475        -0.90025
C         45.29707        46.17025        -1.51751
C         44.15562        46.91504        -0.85417
C         43.92460        48.34864        -1.00756
C         47.67316        27.09246         0.11573
C         46.63023        26.50252        -0.19310
C         47.96383        28.55508        -0.14731
C         46.58585        29.22855         0.20042
C         47.90796        31.48089         0.05823
C         46.59438        30.75588         0.23785
C         47.88447        32.99075         0.13897
C         46.69781        33.66985        -0.50419
C         48.02642        35.97732        -0.30124
C         46.82467        35.18115        -0.88130
C         47.90810        37.45019        -0.02945
C         46.56342        38.13340         0.00312
C         47.87551        40.37086        -0.04813
C         46.54659        39.64107        -0.16311
C         47.84221        41.86670         0.16762
C         46.53004        42.60754         0.11981
C         47.80538        44.88678        -0.00342
C         46.50552        44.11160        -0.12125
C         47.66683        46.14566        -0.74650
C         46.66256        46.69559        -1.18886
C         50.45728        28.74421         0.68383
C         49.01641        29.21697         0.75839
C         50.41017        31.49014         0.83301
C         49.15241        30.73082         0.41271
C         50.44729        32.99285         0.71198
C         49.14548        33.74382         0.45057
C         50.04203        35.89719         1.32231
C         49.33325        35.23253         0.10137
C         50.04986        37.41730         1.42708
C         48.97738        38.18882         0.73587
C         50.39537        40.39230         0.71273
C         49.14377        39.62869         0.29936
C         50.39934        41.90488         0.61871
C         49.15325        42.62947         0.08808
C         50.31756        44.73676         0.68488
C         49.10015        44.14840         0.08164
C         51.44478        29.34444         1.12144
C         52.56842        31.63224         1.91730
C         51.40668        30.70214         1.77785
C         52.45541        32.85936         2.02767
C         51.65164        33.86400         1.25816
C         52.09786        36.07114         2.56768
C         51.17413        35.10581         1.98100
C         52.10784        37.30118         2.71371
C         51.36095        38.14709         1.74748
C         52.30648        40.57661         2.22127
C         51.46930        39.61361         1.50242
C         52.18685        41.82059         2.22863
C         51.38590        42.70644         1.49394
C         51.13320        44.07123         1.37185
O         44.37712        42.40882         1.14488
O         38.24308        27.00710        -3.08295
O         41.87406        30.94825         0.90300
O         38.92832        39.99802         1.53261
O         35.16244        35.34827         2.72927
O         49.86582        35.15550         2.56636
O         45.91694        28.74581         1.39709
O         41.39587        38.94370        -2.16702
O         38.79439        42.50638         1.33162
O         51.03080        41.08887        -0.40367
O         41.32008        47.88142         0.37941
O         46.87048        44.84374         1.08889
O         38.75347        47.13403         0.55011
O         48.14075        33.51071         1.47787
O         36.00613        39.86835        -0.78314
O         34.61650        42.30682         1.74215
O         32.26759        30.50814         2.34425
O         49.39077        43.39935        -1.12597
O         34.92644        28.39294         0.89404
O         34.03295        38.41337        -0.45602
O         43.69087        46.40558         0.40433
O         44.17231        29.98144        -1.50364
O         39.84729        26.93261         0.37621
O         50.98269        32.13654        -0.33537
O         38.86137        29.92701         0.32445
O         34.19896        32.90132         2.60723
O         44.76411        35.47754        -2.04760
O         42.00121        35.32778        -1.92057
O         46.07028        33.00102        -1.65530
O         48.36996        37.00206        -1.31140
O         35.78780        44.49517         1.55661
O         37.71362        38.06163         2.01500
O         32.50830        36.23716         0.33123
O         41.17033        29.02560        -2.25504
O         42.03343        33.44824         1.16162
O         32.39466        40.87430        -0.72150
O         44.95328        43.77906        -2.03699
O         45.88210        40.04182        -1.41456
O         45.86758        31.27090         1.40490
O         36.70865        29.30097        -2.34750
O         36.17386        35.12577        -0.76190
O         48.78546        39.89666        -1.07702
O         52.10900        38.62944         0.63117
O         48.79205        30.99256        -0.97402
O         39.75450        36.38473        -1.62488
O         39.56951        40.97725        -1.81825
O         47.15615        42.24144         1.39778
O         42.17548        44.51245        -2.47010
O         42.19963        41.16999         0.75634
O         36.65134        31.58016        -1.90047
O         31.85448        39.17026         2.63144
O         35.27373        30.91180         1.53276
O         40.31905        32.53652        -1.94892
O         39.39918        34.06375         1.33291
O         44.38018        26.27224         0.81860
O         31.98637        34.29975         3.52743
O         48.93026        37.99357         2.17742
O         39.04896        44.25294        -1.94964
O         43.63093        37.98687        -1.98037
O         45.73325        37.54487         1.04763
O         38.10851        38.29452        -1.48828
H         38.32098        37.53261        -2.07659
O         34.32992        33.30111        -1.02268
H         34.56028        34.18834        -1.38596
O         36.44884        42.52365        -1.40375
H         36.40944        41.57643        -1.68275
O         52.39810        34.32374         0.15348
H         52.51924        33.57316        -0.46955
O         37.83891        33.77312        -1.91229
H         37.17721        33.33846        -2.49687
O         44.44091        34.21053         1.30838
H         43.69348        33.94908         1.89548
O         33.63294        44.09793        -1.37670
H         32.76279        43.70094        -1.58872
O         47.19657        35.14139        -2.26664
H         46.46978        34.70469        -2.76739
O         37.95074        35.69916         2.38468
H         38.81475        35.98755         2.74332
O         43.79043        39.26703         1.44741
H         43.51093        40.09823         1.89767
O         50.22261        35.27626        -1.01305
H         49.90605        35.95971        -1.64896
O         40.38314        46.44218        -2.73405
H         39.85085        45.75345        -3.18853
O         41.72124        42.00593        -2.61601
H         40.90452        41.57612        -2.96567
O         35.23587        37.82754         2.91101
H         36.01538        37.47269         3.39348
O         45.02229        46.15624        -2.88953
H         45.61108        45.52274        -3.34941
O         48.21191        28.69875        -1.52035
H         49.17229        28.61721        -1.69746
O         38.37990        44.94725         1.58136
H         37.64338        45.20130         2.18085
O         42.31208        28.33330         1.18239
H         41.46093        27.83596         1.25634
O         50.78014        30.55344         3.01930
H         51.36351        30.06467         3.63449
O         48.59212        29.10825         2.09669
H         48.23119        28.21108         2.26179
