         291
 CSIRO Nanostructure Databank - Neutral Graphene Oxide Data Set
C          1.26859         1.89119        -0.47055
C          1.22973         3.30472        -0.49184
C          2.42742         1.20787        -0.15486
C          2.31688         4.08331        -0.08884
C          1.10448         6.23684        -0.49119
C          1.11687         7.58655        -0.66503
C          2.30628         5.50652        -0.18256
C          2.35129         8.34927        -0.46513
C          1.28446        10.67773        -1.16844
C          1.41030        12.00201        -1.38474
C          2.43370         9.82730        -0.72164
C          2.66828        12.77342        -1.08478
C          1.49750        15.05778        -1.65574
C          1.41957        16.41788        -1.54259
C          2.72206        14.29635        -1.29545
C          2.54252        17.24342        -1.19484
C          2.48205        18.60865        -0.93702
C          3.60833         1.90931         0.23497
C          3.46332         3.37869         0.61944
C          4.81439         1.24229         0.33403
C          4.77427         4.10564         0.56217
C          3.51007         6.25657         0.08314
C          3.50187         7.64237         0.13679
C          4.80892         5.46984        -0.05794
C          4.65211         8.39901         0.79452
C          3.46478        10.67759         0.00799
C          3.86677        11.76805        -1.04669
C          4.66631         9.94743         0.65054
C          5.19614        12.37366        -0.75881
C          3.95913        15.11964        -1.24180
C          3.90988        16.62735        -1.28653
C          5.22528        14.59005        -1.06973
C          4.86501        17.27180        -0.30349
C          3.63970        19.37276        -0.62956
C          4.86979        18.76062        -0.33650
C          6.06846         1.91589         0.53798
C          5.97230         3.34397         1.04703
C          7.27325         1.27021         0.44613
C          7.28386         4.14180         0.94037
C          6.04445         6.33016         0.24381
C          6.00756         7.81715         0.41764
C          7.27390         5.62866         0.73864
C          7.23830         8.47469         1.10012
C          5.95815        10.71019         0.84993
C          6.08100        12.05879         0.20917
C          7.26860        10.00485         1.00871
C          7.22166        12.93704         0.61080
C          6.27041        15.15053        -0.28376
C          6.07434        16.54779         0.16659
C          7.32041        14.39460         0.27808
C          7.25057        17.33120         0.73178
C          6.09813        19.42230        -0.15334
C          7.30597        18.73659         0.14579
C          8.54490         2.02240         0.12966
C          8.63420         3.41618         0.80931
C          9.85897         1.31166         0.30174
C          9.73557         4.24037         0.06358
C          8.57503         6.40089         0.68947
C          8.54831         7.90152         0.44995
C          9.84975         5.67995         0.54857
C          9.79195         8.52389         1.04693
C          8.43877        10.70454         1.14436
C          8.45473        12.20522         1.16151
C          9.73522         9.98594         1.37620
C          9.72818        12.96113         1.11484
C          8.49214        15.10415         0.70859
C          8.55079        16.55143         0.64073
C          9.68660        14.34660         0.93024
C          9.74244        17.27454         0.65353
C          8.54365        19.36207         0.02863
C          9.77277        18.67608         0.26976
C         11.06560         2.04897         0.15884
C         11.03959         3.48965         0.15050
C         12.32197         1.40025        -0.00008
C         12.24766         4.21463         0.53799
C         11.08473         6.48414         0.14359
C         11.07801         7.89132         0.68935
C         12.30315         5.70937         0.61928
C         12.26875         8.61801         0.75176
C         11.05025        10.72384         1.42889
C         11.01127        12.26243         1.37799
C         12.28877         9.98610         1.09271
C         12.33532        12.99131         1.08269
C         10.97337        15.09145         0.98773
C         11.02277        16.58711         0.90832
C         12.06631        14.29485         0.32701
C         12.36392        17.31437         0.70345
C         10.99162        19.32870         0.00302
C         12.25770        18.70451         0.11617
C         13.52369         2.20531        -0.40164
C         13.54230         3.46713         0.45246
C         14.82945         1.46317        -0.27678
C         14.85577         4.19666         0.62230
C         13.63119         6.40786         0.39371
C         13.61517         7.90641         0.83128
C         14.87756         5.68570         0.98693
C         14.73754         8.60965         0.07187
C         13.60646        10.76127         1.07957
C         13.27232        12.04607         0.27497
C         14.83214        10.06605         0.47991
C         14.46170        12.78283        -0.34124
C         13.35329        15.03079         0.01065
C         13.40716        16.54153        -0.17993
C         14.26803        14.22747        -0.58224
C         14.79260        17.16901         0.18713
C         13.46595        19.34425        -0.13863
C         14.74716        18.69453         0.04998
C         16.02568         2.13174        -0.06301
C         16.06326         3.53343         0.15964
C         17.33971         1.38078         0.02196
C         17.36775         4.23920         0.41853
C         16.09673         6.43700         0.45352
C         16.03614         7.83004         0.18223
C         17.29190         5.73802         0.19010
C         17.21505         8.54916        -0.07647
C         15.93565        10.75312         0.08481
C         15.85093        12.18499        -0.36138
C         17.16300        10.02239        -0.45602
C         17.19410        12.93093        -0.71033
C         16.22107        15.28154        -0.88054
C         16.05527        16.63329        -0.47373
C         17.23410        14.44176        -0.46404
C         17.28464        17.35650        -0.20410
C         15.92016        19.40637         0.08402
C         17.22282        18.72770         0.44397
C         18.53037         2.19554        -0.43332
C         18.53617         3.55115        -0.24858
C         19.67991         1.52940        -1.01476
C         19.76814         4.32751        -0.46528
C         18.44589         6.45701        -0.17946
C         18.43726         7.86353        -0.18262
C         19.60030         5.77334        -0.86915
C         19.76163         8.56299         0.04662
C         18.43092        10.75868         0.02513
C         18.40412        12.24779        -0.03482
C         19.74562        10.06405        -0.31892
C         19.73297        12.99131        -0.04761
C         18.45905        15.06195         0.17006
C         18.53954        16.56404        -0.00406
C         19.71341        14.44527        -0.49954
C         19.73962        17.26023         0.62454
C         18.53115        19.43160         0.18840
C         19.70399        18.74874         0.28562
C         20.82396         2.19450        -1.33144
C         20.98764         3.61752        -1.00706
C         22.01241         4.46032        -1.66602
C         20.90496         6.54400        -0.92429
C         20.95260         7.88046        -0.60641
C         22.00238         5.81119        -1.54941
C         22.14435         8.70024        -0.77786
C         21.06033        10.73186         0.21955
C         21.04218        12.26674         0.03419
C         22.20703        10.01177        -0.45610
C         22.22452        13.05402        -0.39326
C         21.00156        15.19807        -0.14912
C         21.02230        16.52311         0.20450
C         22.20853        14.40692        -0.41147
C         22.31774        17.30161         0.40403
C         20.98021        19.43943         0.19979
C         22.15460        18.79339         0.31540
O         18.22201        11.53493         1.24004
O          6.24842         7.25578        -0.90224
O          7.15859         8.04014         2.42553
O         18.26234        17.10507        -1.31639
O          5.51361        13.36541        -1.69130
O         14.95787        12.12803        -1.54597
O          5.00125        10.56907         1.93868
O         11.10049        11.55932         2.64823
O          2.91545         8.96022        -1.77633
O         14.21803         3.35179         1.71194
O         17.14291        10.08832        -1.88504
O          2.53654        13.63246         0.06509
O         20.41963        12.89945         1.23619
O          7.46021        12.78407         2.05506
O          9.66512         8.95986         2.42553
O         11.11199        15.84693         2.20342
O          7.20988         5.06952         2.09060
O         15.12975        14.74118        -1.55842
O         12.11721         4.99771         1.85524
O          4.86513        16.67039         1.02810
O          9.41674         6.03921         1.91752
H          8.92400         5.27643         2.37070
O          2.73940        11.29231         1.07507
H          3.37506        11.47151         1.80895
O         12.89805        17.55738         2.01501
H         12.65005        16.79097         2.58490
O          8.66991         8.13523        -0.96853
H          7.83218         7.82831        -1.40174
O         11.46159        14.00586        -0.96607
H         11.88351        13.18863        -1.33563
O         13.85832         6.29707        -1.02471
H         13.09929         6.70309        -1.50397
O         14.40616         8.71825        -1.34282
H         15.20220         9.10698        -1.78648
O         17.54235         1.09146         1.42676
H         18.44961         0.73681         1.53407
O         20.84948         3.97079         0.43058
O          4.43273        16.98703        -2.61559
H          3.74701        16.76215        -3.27923
O         19.62278        17.18366         2.07286
H         19.40919        16.23995         2.29328
O         13.36862         2.66865        -1.79198
H         13.27250         1.87875        -2.36358
O         17.57215         4.04368         1.85747
H         17.55747         3.06872         2.01950
O         23.32583        16.95683        -0.56264
H         23.00415        17.22970        -1.44626
O          3.97010        11.17317        -2.35478
H          4.51142        11.77332        -2.91096
O         19.56039        14.50599        -1.92109
H         19.22625        15.39567        -2.16975
O         13.96742        11.05234         2.44832
H         14.06748        10.17533         2.88719
O         18.48045        14.81779         1.59763
H         18.79137        13.90056         1.78048
O         19.80138        10.16603        -1.75818
H         18.85560        10.07305        -2.09447
O         15.11736        16.75396         1.53578
H         15.73719        17.42516         1.93370
O          4.86358         5.20545        -1.50879
H          4.95590         6.07886        -1.95395
O         12.95107        13.40160         2.29836
H         12.90787        12.64299         2.92854
O         17.15706        18.48027         1.89575
H         18.03774        18.11340         2.18216
O          7.03024        17.51304         2.15553
H          6.06683        17.37102         2.31523
O         21.22776        10.51481         1.62432
H         20.56269        11.07330         2.08645
O         19.15002         5.67425        -2.26828
H         18.96100         6.58325        -2.58665
O          5.77009         3.09953         2.49695
H          5.86050         3.97300         2.94554
O         19.91342         8.44292         1.48491
H         20.02317         7.49393         1.70319
O          8.36903         2.20636        -1.33875
H          8.41465         1.31173        -1.73832
O          4.53482         8.08572         2.19647
H          5.45812         8.17665         2.59861
O         12.50850        11.57552        -0.87428
H         13.17556        11.21925        -1.51249
O          9.13002         3.26618         2.15557
H          8.56682         2.61446         2.62576
O         17.38641        12.73734        -2.11459
H         17.23750        11.74887        -2.28316
O          3.05380         3.34261         2.03915
H          3.84253         3.01473         2.53817
O         13.10731        16.84545        -1.55424
H         13.62669        16.22766        -2.11531
O          9.34690         4.50751        -1.30498
H          9.27218         3.64135        -1.77728
O         13.91559         8.09821         2.23919
H         14.35634         7.28994         2.61184
O         11.12173         6.55990        -1.29913
H         10.35486         7.11251        -1.58474
O         14.91391         5.72300         2.42569
H         14.38871         4.94687         2.74223
H          0.38113         1.33298        -0.80049
H          0.33245         3.78208        -0.91036
H          2.47592         0.11584        -0.28243
H          0.15808         5.69360        -0.61754
H          0.20085         8.11824        -0.95834
H          0.32782        10.18564        -1.40320
H          0.52902        12.55882        -1.73779
H          0.57910        14.50030        -1.88703
H          0.44632        16.90882        -1.70080
H          1.51170        19.12490        -0.99709
H          4.84174         0.16034         0.12393
H          3.55796        20.46886        -0.59115
H          7.26495         0.20420         0.15935
H          6.14488        20.50905        -0.32968
H          9.88439         0.21625         0.20067
H          8.58895        20.40407        -0.32573
H         12.40844         0.31718         0.17260
H         10.95205        20.37216        -0.34856
H         14.84577         0.38305        -0.49242
H         13.46740        20.40385        -0.44144
H         17.28096         0.41100        -0.54968
H         15.89931        20.50347        -0.00807
H         19.58378         0.45980        -1.25824
H         18.54241        20.51674         0.00216
H         21.62638         1.68208        -1.88361
H         22.83471         3.95797        -2.19785
H         22.83966         6.38390        -1.97526
H         23.03554         8.22629        -1.21670
H         23.15588        10.54692        -0.61208
H         23.16280        12.52807        -0.61980
H         23.14131        14.95133        -0.62214
H         22.74322        17.04055         1.41249
H         20.95998        20.53376         0.08134
H         23.09330        19.36665         0.27664
