         280
 CSIRO Nanostructure Databank - Neutral Graphene Oxide Data Set
C         30.43718        31.32322        -0.19144
C         30.47938        32.53882         0.08616
C         30.42732        35.95763         0.04721
C         30.39231        37.19241         0.08371
C         30.55529        40.46454         0.42060
C         30.43105        41.72439         0.66763
C         32.95603        29.00545        -1.17317
C         31.68594        29.24424        -1.05379
C         33.14994        31.46429        -0.04485
C         31.32571        30.21229        -0.10755
C         32.89389        32.91146         0.03249
C         31.51078        33.55424        -0.31592
C         32.77855        35.90316        -0.61068
C         31.51679        34.96790         0.25299
C         32.75132        37.29250         0.05888
C         31.50681        38.18381        -0.23623
C         32.73450        40.18120         1.08752
C         31.50083        39.49542         0.52486
C         32.81628        41.67820         1.17248
C         31.59423        42.44378         0.96049
C         32.82301        44.39165         1.66652
C         31.80208        43.83123         1.26218
C         35.64262        27.60462        -2.01990
C         35.42133        29.09938        -2.08311
C         34.18117        29.60116        -1.36319
C         35.28738        31.86644        -1.38064
C         34.16209        30.95353        -0.85967
C         35.20626        33.28916        -0.76797
C         34.00768        33.69969         0.08306
C         35.25601        35.96889         0.02717
C         34.09205        35.12244        -0.44750
C         35.28006        37.28590         0.34050
C         33.98897        37.95387         0.60134
C         35.29069        40.13813         0.94638
C         34.02302        39.38849         1.04572
C         35.26216        41.50728         1.42528
C         34.06981        42.26909         1.54137
C         35.30069        44.64060         1.71769
C         34.11814        43.80911         2.14067
C         35.41219        45.91111         1.08947
C         37.79904        27.50418        -0.90218
C         36.72778        27.06550        -1.75568
C         37.87221        28.98455        -1.02174
C         36.68717        29.72141        -1.39464
C         37.76789        31.72177        -0.61771
C         36.60242        31.09669        -1.09938
C         37.74105        33.05934         0.00852
C         36.48313        33.82137        -0.16295
C         37.81861        36.03629        -0.31396
C         36.53797        35.30316        -0.24733
C         37.83832        37.47791         0.02138
C         36.58351        38.02261         0.67698
C         37.69877        40.36390         0.24185
C         36.47371        39.52383         0.57431
C         37.74802        41.59076         1.13484
C         36.59287        41.99638         1.73971
C         37.79964        44.77442         1.51870
C         36.61290        44.18976         1.98230
C         37.79383        46.21704         1.19483
C         36.41154        46.65322         0.92709
C         40.19711        24.98202        -0.58639
C         39.09075        25.46449        -0.32738
C         40.69909        27.66431        -1.40861
C         38.41820        26.68127         0.04100
C         40.47666        28.98082        -0.68862
C         39.12275        29.69176        -0.94613
C         40.14955        32.01214        -0.76219
C         39.01929        31.09049        -0.77740
C         40.28092        33.13532        -0.02720
C         39.01344        33.83307         0.43486
C         40.27988        35.98807         0.08520
C         39.08928        35.19695        -0.34079
C         40.26985        37.36929        -0.11600
C         39.02131        38.18193        -0.09030
C         40.19835        40.40628         0.21172
C         39.04865        39.62797         0.16440
C         40.26285        41.67365         1.05922
C         38.96558        42.47255         0.98781
C         40.30581        44.71825         1.08180
C         38.98594        43.98515         1.13445
C         40.40206        46.06990         0.79100
C         39.09627        46.87429         0.85149
C         40.22603        48.75150        -0.04369
C         39.15739        48.11427         0.04965
C         42.75671        24.66662        -0.71818
C         41.51653        25.29202        -1.27389
C         42.81332        27.33330        -0.09345
C         41.69797        26.81826        -1.00364
C         42.99487        28.84292        -0.27232
C         41.83877        29.68902        -0.64867
C         43.09072        31.77434        -0.00520
C         42.11895        31.01152        -0.80050
C         42.84622        33.08652         0.34047
C         41.61314        33.88888        -0.12124
C         42.80988        35.94219         0.47831
C         41.47978        35.24110         0.61621
C         42.85636        37.21469        -0.32632
C         41.52507        37.88140        -0.48571
C         42.73160        40.41970         0.11146
C         41.49324        40.00010        -0.28651
C         42.88886        41.74894         0.82992
C         41.52700        42.49387         0.86321
C         43.18751        44.88440         0.34951
C         41.45798        43.81768         1.18479
C         42.91534        46.14229        -0.09051
C         41.77206        46.90594         0.62388
C         42.70618        48.74710        -0.71281
C         41.56811        48.33715        -0.12838
C         43.77844        25.18474        -0.26364
C         45.27448        27.22016         0.47276
C         44.19258        26.63644        -0.39470
C         45.25000        28.66167         0.94484
C         44.19572        29.52854         0.32487
C         45.25939        31.61872         1.20065
C         44.21060        31.00458         0.57430
C         45.18880        33.09487         1.41544
C         43.81710        33.79950         1.28358
C         45.20842        36.05624         1.00678
C         43.92471        35.30120         0.92314
C         45.21040        37.51668         0.61742
C         43.94014        38.18499         0.16763
C         45.26209        40.29598        -0.04648
C         43.95541        39.61468        -0.38158
C         45.18566        41.72881        -0.20588
C         44.06510        42.46872         0.11538
C         45.23863        44.61967        -0.81842
C         43.92449        43.86733        -0.47580
C         44.86232        45.85180        -1.77726
C         43.83614        46.72685        -1.09825
C         43.73745        48.09314        -1.16478
C         47.61629        27.15398         1.26986
C         46.52841        26.71666         0.73473
C         47.81464        28.62912         0.87191
C         46.53097        29.37640         1.34849
C         47.79263        31.64429         1.15045
C         46.54052        30.91229         1.68516
C         47.83295        33.13207         1.68686
C         46.49005        33.86088         1.50734
C         47.71699        35.93685         0.45958
C         46.51209        35.34981         1.20049
C         47.74667        37.47701         0.44570
C         46.51088        38.19107         0.37813
C         47.75345        40.18358        -0.50006
C         46.46406        39.57958         0.03278
C         47.73462        41.69552        -0.58518
C         46.44652        42.42888        -0.57596
C         47.49148        44.24353        -2.13776
C         46.32879        43.70243        -1.34672
C         47.30383        45.70747        -2.27336
C         46.27687        46.35780        -2.04205
C         50.38241        29.04365         1.21566
C         49.11948        29.22097         1.24614
C         50.26942        31.70602         1.10094
C         49.04814        31.09670         1.76456
C         50.37642        33.23097         1.51628
C         49.04374        33.92767         1.20749
C         50.32649        35.98358         0.70381
C         49.00903        35.23963         0.85597
C         50.20838        37.41466         0.19258
C         48.98801        38.14112         0.27744
C         50.26811        40.24385        -0.51307
C         49.03193        39.67490         0.21334
C         50.28317        41.65376        -0.99685
C         48.95527        42.37119        -1.17205
C         50.10208        44.15812        -2.33653
C         48.76711        43.41754        -2.31861
C         51.67092        29.50401         1.33295
C         52.64425        31.85511         1.22799
C         51.65043        30.89832         1.32298
C         52.71289        33.09550         0.85852
C         51.55540        33.84178         0.75888
C         52.52812        35.86864        -0.41938
C         51.30428        35.03553        -0.09848
C         52.41979        37.09863        -0.50605
C         51.37465        38.04814        -0.29092
C         52.41724        40.05809        -1.45440
C         51.36957        39.40769        -0.72997
C         52.46577        41.22204        -1.93277
C         51.45970        42.18960        -1.81503
C         51.14252        43.43478        -2.36641
O         49.82747        42.72115        -0.07110
O         45.92968        36.05174         2.31483
O         38.56325        47.03441         2.17429
O         36.74473        33.16523         1.11089
O         44.25367        38.18420         1.56283
O         42.65346        44.45715         1.56547
O         44.14696        29.21795        -1.10985
O         38.83023        43.28575        -0.22862
O         46.36269        43.55917        -2.80342
O         45.66223        28.74706         2.34438
O         33.30229        39.56578         2.30460
O         33.08614        37.16854         1.46534
O         32.41020        30.59135         0.78966
O         45.70738        33.55773         2.70540
O         41.48843        38.99054        -1.30322
O         41.21977        31.71328        -1.61355
O         47.33404        42.44330         0.60306
O         34.70061        34.39424        -1.69572
O         37.05211        35.77421        -1.56134
O         36.71227        43.00274         2.70116
O         34.13958        43.68234         3.54523
H         33.35712        43.16971         3.83459
O         41.88909        34.29726        -1.49447
H         41.73805        33.50574        -2.06503
O         31.84822        34.85394         1.59890
H         31.84105        35.73741         2.02763
O         39.34900        34.84015        -1.72622
H         38.57633        35.15328        -2.25933
O         50.64141        34.62209        -1.28977
H         51.12194        33.85913        -1.67598
O         43.11894        43.66471        -1.66009
H         43.53339        42.97068        -2.21535
O         43.23574        33.65404         2.61097
H         43.94196        33.91897         3.24882
O         43.95364        39.58200        -1.82983
H         43.54932        38.73763        -2.13759
O         47.49001        35.54392        -0.93693
H         48.36522        35.44893        -1.37525
O         45.70390        45.14938         0.42976
H         46.51867        45.67331         0.27051
O         37.49553        40.83909        -1.13044
H         37.97056        41.69692        -1.22563
O         42.17538        47.24524         1.94397
H         42.51063        46.43253         2.38219
O         42.54438        27.06957         1.29526
H         41.66836        27.47074         1.50234
O         40.38321        28.64615         0.75085
H         40.08377        29.44916         1.22891
O         47.83190        39.75091        -1.88386
H         47.67067        38.78405        -1.91756
O         48.06281        33.15560         3.12823
H         47.20791        32.88617         3.54737
O         47.78878        28.74688        -0.56126
H         48.58761        28.30874        -0.92327
O         39.87829        27.35488        -2.43685
H         40.17655        26.49640        -2.82859
O         36.80489        37.73459         2.10391
H         36.04927        38.10402         2.61120
O         41.16694        35.15488         2.01319
H         41.81700        34.55848         2.46716
O         38.61618        27.10044         1.30854
H         39.20503        26.47981         1.78265
O         35.36938        29.51639        -3.43315
H         36.17816        29.21031        -3.89128
O         44.35613        45.41626        -3.00793
H         45.01271        44.80229        -3.41403
O         40.35573        41.20528         2.43626
H         41.29664        40.97374         2.62238
O         50.67792        33.31245         2.90537
H         49.82609        33.19801         3.39855
O         43.27850        36.81977        -1.67489
H         42.79253        35.98306        -1.89835
O         48.64277        42.66528        -3.51191
H         48.22536        43.21534        -4.20631
O         46.50430        30.96534         3.15407
H         45.90451        30.23435         3.44159
O         38.96799        34.04857         1.83352
H         38.04917        33.87151         2.14490
O         49.04547        40.16339         1.56634
H         48.97906        41.14455         1.54503
O         43.27367        41.49877         2.20309
H         43.59101        42.34319         2.58923
O         50.06662        31.66292        -0.31000
H         49.10924        31.45534        -0.45741
O         31.48498        38.52833        -1.60692
H         31.55090        37.69583        -2.13358
O         50.93674        36.09187         2.00742
H         50.39047        36.68204         2.56722
O         41.35268        25.05974        -2.66311
H         41.27543        24.09623        -2.82182
O         49.14259        30.89445         3.09076
H         48.21529        30.84233         3.45660
O         44.53344        26.82457        -1.75993
H         45.49888        26.70831        -1.87175
O         32.43998        36.05425        -1.97064
H         32.33668        35.15794        -2.36953
O         35.19989        32.02466        -2.80164
H         34.74888        32.87680        -2.99019
O         31.47099        33.62423        -1.74854
H         31.28657        32.73117        -2.10943
