         276
 CSIRO Nanostructure Databank - Neutral Graphene Oxide Data Set
C        -10.74429         0.35070         0.52621
C         -9.70113         1.27523         1.04037
C         -8.40520         0.64424         1.54055
C         -7.11469         1.39943         1.34997
C         -5.80707         0.57648         1.16685
C         -4.64813         1.43186         0.59656
C         -3.53390         0.74586        -0.11647
C         -2.55645         1.51176        -0.98335
C         -1.20214         0.86926        -1.11301
C         -0.00665         1.54744        -1.86006
C          1.30955         0.90893        -1.32906
C          2.59591         1.54292        -1.86687
C          3.86378         0.76657        -1.58869
C          5.22992         1.49201        -1.39641
C          6.20953         0.72848        -0.49134
C          7.27369         1.36559         0.04453
C          8.33607         0.61081         0.82283
C          9.74863         1.31183         0.70416
C         10.74819         0.49750         1.49309
C         -9.71555         2.68722         0.64584
C         -8.59011         3.51368         0.81453
C         -7.25380         2.85410         1.00668
C         -6.15219         3.53505         0.25895
C         -4.83077         2.85939         0.15301
C         -3.55406         3.68558         0.00364
C         -2.54882         2.98738        -0.90805
C         -1.28723         3.75865        -1.28633
C         -0.01396         3.10461        -1.78826
C          1.35552         3.88356        -2.19788
C          2.65833         3.06606        -1.92689
C          3.91983         3.74429        -1.44259
C          5.09719         2.96411        -0.92136
C          6.17825         3.59506        -0.37971
C          7.49361         2.84850        -0.19203
C          8.35580         3.40379         0.95599
C          9.44529         2.63966         1.34445
C         -8.62351         4.91193         0.73343
C         -7.34955         5.70073         0.96259
C         -6.26994         5.02674         0.13329
C         -5.07710         5.79373        -0.27774
C         -3.80305         5.07785        -0.51545
C         -2.74131         5.79771        -0.96147
C         -1.40663         5.14706        -0.69473
C          0.31398         6.28407        -2.08881
C          1.40044         5.33178        -1.65544
C          2.50630         5.87990        -1.06856
C          3.83478         5.20456        -1.08659
C          5.00642         5.86700        -0.42878
C          6.30386         5.09227        -0.21265
C          7.06539         5.52194         1.03153
C          8.10663         4.66964         1.50398
C         -7.36963         7.20152         0.68487
C         -6.24629         7.90568         0.37016
C         -4.91143         7.21556         0.21240
C         -3.94187         7.93568        -0.70782
C         -2.97492         7.19996        -1.30143
C         -1.03307         8.28349        -1.36269
C          0.11421         7.54163        -1.30571
C          1.16967         7.99121        -0.39026
C          2.44564         7.22494        -0.40024
C          3.70976         8.01744        -0.12305
C          4.74752         7.06535         0.48609
C          6.06873         7.80008         0.79118
C          6.98664         6.82149         1.47171
C         -6.18614         9.36602         0.27600
C         -5.11168        10.05850        -0.16738
C         -3.89649         9.44727        -0.83689
C         -2.55619         9.97305        -0.28799
C         -1.29853         9.46047        -0.52594
C         -0.10849        10.04479         0.08977
C          1.09651         9.38535         0.11515
C          2.26923         9.87675         0.80912
C          3.46228         9.20317         0.80257
C          4.60176         9.67703         1.57185
C          5.79761         9.04720         1.59423
C        -10.72771        -0.97347         0.75801
C         -9.70385        -1.56384         1.69931
C         -8.35359        -0.85601         1.50852
C         -7.19319        -1.54101         0.86484
C         -5.97852        -0.78073         0.45277
C         -4.95475        -1.41592        -0.19259
C         -3.71922        -0.67389        -0.54320
C         -2.48074        -1.36659        -1.00864
C         -1.18929        -0.60554        -0.91962
C          0.03787        -1.39168        -1.22073
C          1.28595        -0.62168        -1.51680
C          2.54611        -1.35274        -1.28175
C          3.73375        -0.68015        -1.20994
C          4.91606        -1.42982        -0.72811
C          6.26547        -0.78478        -0.55867
C          7.07462        -1.53363         0.52772
C          8.42567        -0.85738         0.35256
C          9.55422        -1.61335         1.01424
C         10.63911        -0.84030         1.61402
C         -9.49741        -3.06208         1.68829
C         -8.41038        -3.65790         1.13862
C         -7.54799        -2.86780         0.16462
C         -6.29905        -3.60295        -0.40311
C         -5.03886        -2.83970        -0.70422
C         -3.76572        -3.60409        -1.09873
C         -2.43829        -2.86972        -1.14473
C         -1.19062        -3.55662        -0.76066
C          0.05344        -2.72880        -0.48297
C          1.22565        -3.56335        -0.90680
C          2.43670        -2.85397        -1.32425
C          3.72753        -3.65771        -1.25072
C          4.89384        -2.92032        -0.69960
C          6.16659        -3.64413        -0.48051
C          7.19429        -2.99546         0.10822
C          8.50047        -3.75491         0.28551
C          9.50871        -2.96752         1.08804
C         -8.04044        -5.01838         1.46350
C         -7.01851        -5.67909         0.87234
C         -6.38856        -5.13244        -0.42677
C         -5.06511        -5.87419        -0.75235
C         -3.69548        -5.15566        -1.03135
C         -2.62761        -5.62940        -0.03105
C         -1.26239        -4.90414        -0.18305
C          0.03837        -5.63892         0.02829
C          1.38250        -4.94775        -0.28121
C          2.40422        -5.83714        -1.03259
C          3.74308        -5.12296        -1.03325
C          4.91984        -5.79176        -0.95530
C          6.27564        -5.12423        -0.79349
C          7.08012        -5.78392         0.33401
C          8.15253        -5.13147         0.82247
C         -6.67123        -7.05425         1.41437
C         -6.27471        -7.96689         0.24385
C         -5.00854        -7.31712        -0.33118
C         -3.67874        -7.90420        -0.00143
C         -2.53828        -7.16285        -0.07274
C         -1.23070        -7.85819        -0.39187
C          0.01604        -7.14339         0.11702
C          1.29148        -7.89554        -0.00050
C          2.54585        -7.19584        -0.36985
C          3.70447        -7.91304        -0.40715
C          4.86274        -7.28566        -1.11277
C          6.80808        -8.26542         0.34779
C          6.51854        -7.04984         0.88527
C         -6.08223        -9.40994         0.63456
C         -4.89936       -10.02546         0.68698
C         -3.59209        -9.28612         0.62087
C         -2.47643       -10.13105         0.00989
C         -1.18179        -9.34866        -0.08833
C         -0.01181       -10.01436        -0.06353
C          1.27921        -9.34726        -0.45298
C          2.54142       -10.00224         0.05951
C          3.71562        -9.30836         0.08649
C          4.91497        -9.98012         0.59217
C          6.19308        -9.55638         0.72725
O          0.68215        -7.65025         1.31124
O          3.69452         3.48536        -2.85985
O         -2.07165         7.83359        -2.18478
O         -3.40984         1.10216         1.28531
O          8.55447        -0.89170        -1.12014
O          8.28462         3.01933        -1.34647
O         -6.90904         2.44271         2.36533
O          1.54388         7.09092         0.75498
O         -0.66784         5.55821         0.18077
O         -0.35138         6.05482        -3.09742
O          7.28573         5.60137        -1.25869
O          0.49714        -1.26409        -2.57923
O          7.03701        -5.31617        -2.03357
O          5.54216        -7.89035        -1.93463
O         -1.04033         3.62143        -2.70155
O         -0.97204         0.27923         0.22824
O          3.19072        -3.31954        -2.54050
O          4.75605         6.07963        -1.83558
O          7.17086        -1.07292        -1.69550
O         -6.04301        -3.05865        -1.73558
O         -9.33607         1.17553         2.49441
O         -5.20613        -6.94357        -1.73314
O         -6.16265         5.54338        -1.22114
O          3.29124         0.91582        -2.95135
O         -8.38916        -2.56940        -0.91559
O         -0.56983        -4.99025         1.19600
O          4.50678        -2.15767         0.51228
O         -3.11557         2.29058        -2.05711
O         -7.33633        -1.50829         2.32920
O         -5.74862         2.89015        -0.98568
O         -3.18714        -3.21924        -2.37115
O         -3.38980        -0.76420        -1.97115
O          1.33844        -9.34928        -1.90726
H          0.51098        -8.92256        -2.23304
O         -3.19642        -5.63889        -2.28540
H         -3.80589        -5.35206        -2.99920
O          4.15823         8.56110        -1.37366
H          5.13992         8.68577        -1.32036
O          1.44070         1.18533         0.08368
H          0.67882         0.76533         0.56200
O          6.68593         8.20625        -0.46419
H          6.96279         7.38924        -0.96181
O          1.29429         3.96115        -3.61573
H          0.53392         4.54881        -3.84891
O         10.17295         1.35162        -0.64227
H          9.54816         1.94395        -1.16096
O          0.12414        -2.35832         0.93192
H         -0.10303        -3.16710         1.45049
O         -3.13329        -5.26583         1.27019
H         -2.40662        -5.42078         1.91639
O         -5.53430        -6.98126         2.29649
H         -5.72186        -6.31496         2.98969
O         -6.95700         5.51259         2.35307
H         -7.73541         5.67882         2.92430
O          6.57465        -1.44037         1.85985
H          5.65457        -1.80928         1.84113
O         -2.30022       -11.31096         0.78905
H         -2.28580       -11.02298         1.72772
O          5.84509         1.56109        -2.69004
H          5.17451         1.94523        -3.30328
O         -5.41760         0.21008         2.50252
H         -5.48702         1.01285         3.06380
O         -4.29721         7.10883         1.52990
H         -4.29205         8.00027         1.93731
O         -0.12138         1.19922        -3.23403
H         -0.72220         1.84723        -3.66562
O          6.28387        -4.57523        -3.04714
H          6.82997        -4.74125        -3.85339
O        -10.15119        -1.24974         3.04056
H         -9.37091        -1.30342         3.63230
O         -3.97785         9.82953        -2.22868
H         -3.29630         9.30909        -2.71363
O          9.09595        -3.89913        -1.03241
H          9.12467        -3.00327        -1.43918
O         -7.34148        -7.98420        -0.70864
H         -7.15693        -7.30762        -1.40599
O          7.00707         4.97267        -2.51764
H          7.49206         4.08935        -2.40769
O          4.23615         6.56875         1.74135
H          3.25498         6.65159         1.75029
O         -2.92385         3.80956         1.29649
H         -3.33920         4.54502         1.79503
O         -7.32287        -5.40844        -1.49511
H         -7.87709        -4.60274        -1.62986
O         -3.20675        -9.04890         2.01146
H         -3.89913        -8.46651         2.40156
O         -1.13472        -7.72448        -1.85869
H         -1.86929        -7.14271        -2.18172
O          2.00842        -4.67270         0.99703
H          1.29738        -4.58850         1.67297
O          7.78397        -8.36111        -0.59233
H          7.74568        -9.23120        -1.03384
O          8.03736         0.68353         2.22822
H          7.34980         0.00255         2.43891
O          1.89432        -6.03144        -2.36229
H          2.57351        -6.48790        -2.90201
H         11.40409        -1.40510         2.16887
H         11.60540         1.01991         1.94479
H          9.91114         2.85817         2.32282
H          8.85647         5.10634         2.18491
H          7.62879         7.15458         2.30296
H          6.62213         9.45919         2.19582
H          4.45811        10.58816         2.17400
H          2.17412        10.80474         1.39529
H         -0.20139        11.03204         0.56739
H         -2.60919        10.87045         0.35222
H         -5.16449        11.15846        -0.17477
H         -7.06731         9.92465         0.63113
H         -8.31751         7.74243         0.84192
H         -9.58347         5.42591         0.56905
H        -10.67017         3.13080         0.32276
H        -11.50773         0.78956        -0.13425
H        -11.49634        -1.62350         0.31711
H        -10.14644        -3.64416         2.36176
H         -8.57575        -5.49241         2.30375
H         -7.55428        -7.46165         1.97931
H         -7.01013        -9.98827         0.76196
H         -4.83855       -11.09859         0.92552
H         -2.77748       -10.44488        -1.02498
H         -0.02349       -11.10301         0.10568
H          2.51052       -11.05327         0.38673
H          4.72271       -11.02163         0.90255
H          6.91925       -10.31161         1.07896
H          5.75041        -6.96867         1.66865
H          8.75471        -5.55931         1.63752
H         10.32900        -3.51356         1.58006
