         620
 CSIRO Nanostructure Databank - Neutral Graphene Oxide Data Set
C         23.11837        27.41645        -1.77012
C         23.07805        28.78378        -1.55884
C         23.03491        31.76475        -1.31551
C         23.05468        33.11808        -1.16343
C         22.99877        36.01225        -0.61832
C         22.97714        37.37627        -0.37107
C         22.91777        40.27621         0.06007
C         22.95587        41.59786        -0.19550
C         22.98366        44.52384        -0.48021
C         22.99967        45.88360        -0.62565
C         25.52146        24.58408        -1.51399
C         24.36198        25.28399        -1.73227
C         25.48618        27.38871        -1.11827
C         24.31309        26.69685        -1.54215
C         25.43172        28.79818        -0.87840
C         24.21260        29.48434        -1.09901
C         25.37839        31.66431        -0.33976
C         24.09673        30.92435        -0.75903
C         25.40054        33.12917        -0.44707
C         24.20735        33.83055        -0.67097
C         25.40357        35.96175        -0.21105
C         24.19717        35.27222        -0.52500
C         25.36579        37.35960         0.02982
C         24.15584        38.06777        -0.03422
C         25.42488        40.23636         0.16385
C         24.13573        39.50039         0.47383
C         25.41281        41.65642         0.01519
C         24.18726        42.36494        -0.13694
C         25.42432        44.49375        -0.10477
C         24.18961        43.77955        -0.24805
C         25.43233        45.93514        -0.22626
C         24.22273        46.62015        -0.52996
C         25.43860        48.71984        -0.70210
C         24.25015        48.01738        -0.75347
C         28.00184        23.11226        -1.06945
C         27.95706        24.52245        -0.93166
C         26.72356        25.24697        -1.12047
C         27.90438        27.35180        -0.58590
C         26.70199        26.65469        -0.94190
C         27.83719        28.75997        -0.33672
C         26.63964        29.48877        -0.46096
C         27.83669        31.65547        -0.20793
C         26.65150        30.92525        -0.31768
C         27.86389        33.09405        -0.23137
C         26.64262        33.82080        -0.30042
C         27.89122        35.90860        -0.02753
C         26.65643        35.24083        -0.17142
C         27.92114        37.34056         0.30337
C         26.61070        38.08227         0.38567
C         27.89658        40.23385         0.14928
C         26.63625        39.55234         0.21835
C         27.90040        41.64695         0.11386
C         26.65397        42.36161         0.05032
C         27.88433        44.48655         0.35508
C         26.62923        43.77614         0.06779
C         27.87955        46.00307         0.27247
C         26.63593        46.68014        -0.12832
C         27.92012        48.79752        -0.29833
C         26.65892        48.06768        -0.38504
C         27.96047        50.19747        -0.41813
C         30.41790        23.10427        -0.81423
C         29.19923        22.42397        -1.00892
C         30.40594        24.49859        -0.54791
C         29.16195        25.22287        -0.61849
C         30.34203        27.36641        -0.11886
C         29.12706        26.64358        -0.43793
C         30.34043        28.72765         0.03721
C         29.06151        29.44175         0.09446
C         30.37571        31.65338        -0.07970
C         29.08907        30.96501         0.11204
C         30.35730        33.08026        -0.26800
C         29.10643        33.78909        -0.20234
C         30.36785        35.93264        -0.18327
C         29.12231        35.21314        -0.14515
C         30.38173        37.36783        -0.10195
C         29.17050        38.09140         0.08952
C         30.38468        40.21942        -0.00172
C         29.14889        39.50468         0.09877
C         30.38586        41.64866         0.02868
C         29.15159        42.36304         0.10107
C         30.37403        44.50459         0.16286
C         29.16287        43.77717         0.18804
C         30.36795        45.95387         0.13994
C         29.16468        46.68292         0.07364
C         30.38869        48.81143        -0.06066
C         29.15361        48.09605        -0.11164
C         30.38555        50.23296        -0.14858
C         29.15810        50.89764        -0.33733
C         32.86689        20.23262        -0.47038
C         31.77858        20.88345        -0.90473
C         32.95194        23.11561        -0.57121
C         31.70051        22.37014        -0.92337
C         32.84881        24.53489        -0.19084
C         31.62464        25.18757        -0.20270
C         32.84414        27.37264         0.12960
C         31.56290        26.59860         0.32738
C         32.84629        28.76294         0.17732
C         31.56842        29.49088         0.50715
C         32.80887        31.59798        -0.21857
C         31.58412        30.94031         0.03753
C         32.74750        32.95413        -0.89023
C         31.56053        33.78776        -0.45106
C         32.81259        35.95205        -0.51527
C         31.58625        35.21936        -0.40471
C         32.84664        37.35558        -0.35338
C         31.61850        38.07917        -0.18392
C         32.85744        40.22295        -0.16277
C         31.62107        39.50664        -0.10911
C         32.86152        41.65552        -0.10301
C         31.61851        42.36889        -0.00108
C         32.84914        44.51414         0.04734
C         31.61240        43.79275         0.06842
C         32.84192        45.94277         0.11292
C         31.61065        46.66502         0.11382
C         32.85319        48.79956         0.19113
C         31.61857        48.08963         0.08500
C         32.84379        50.24708         0.19305
C         31.63241        50.96037        -0.00925
C         32.86478        53.06017         0.12260
C         31.67305        52.37348        -0.01932
C         35.33853        18.78964         0.37893
C         35.31820        20.18036         0.27669
C         33.99854        20.92440         0.25725
C         35.32665        23.05471         0.07988
C         34.15467        22.37136        -0.13844
C         35.31797        24.51659         0.09391
C         34.08104        25.22806         0.05667
C         35.29948        27.36546         0.14665
C         34.07449        26.65261         0.09935
C         35.30138        28.78879         0.08315
C         34.06314        29.49677         0.06017
C         35.29856        31.61989        -0.29682
C         34.05138        30.91897        -0.13091
C         35.33015        33.01534        -0.59340
C         34.06930        33.72098        -0.90510
C         35.36467        35.92782        -0.62237
C         34.07276        35.23505        -0.80474
C         35.34768        37.37475        -0.50675
C         34.09999        38.07649        -0.37014
C         35.32834        40.22434        -0.25084
C         34.09389        39.49921        -0.26161
C         35.33457        41.66115        -0.21700
C         34.08480        42.37944        -0.15318
C         35.30744        44.55366        -0.12211
C         34.08291        43.81224        -0.07210
C         35.30083        45.94250         0.01096
C         34.07145        46.65729         0.13981
C         35.32178        48.77951         0.45460
C         34.07562        48.08317         0.24342
C         35.25977        50.21249         0.77446
C         34.04753        50.96518         0.40996
C         35.36140        53.09046         0.38623
C         34.08484        52.37265         0.32644
C         35.41115        54.47179        -0.05264
C         37.76742        18.75883         0.62779
C         36.53641        18.09021         0.54698
C         37.77709        20.18611         0.51894
C         36.54738        20.89704         0.36127
C         37.80333        23.01587         0.32698
C         36.57699        22.33068         0.28931
C         37.80414        24.48787         0.18994
C         36.51803        25.21826         0.25177
C         37.72454        27.37092         0.47612
C         36.52379        26.64588         0.28944
C         37.75005        28.76663         0.29148
C         36.53733        29.49201         0.05490
C         37.76111        31.61048        -0.30073
C         36.53477        30.91534        -0.14937
C         37.79834        33.01421        -0.53226
C         36.54547        33.73384        -0.64389
C         37.81232        35.90294        -0.97912
C         36.54153        35.18128        -0.71639
C         37.80842        37.41100        -0.90458
C         36.55607        38.10559        -0.52428
C         37.80001        40.24349        -0.26594
C         36.56074        39.52054        -0.35471
C         37.79106        41.66570        -0.14324
C         36.55564        42.36265        -0.23000
C         37.83735        44.52690        -0.02900
C         36.58245        43.84116        -0.51645
C         37.87290        45.98801        -0.05170
C         36.55753        46.72792        -0.06453
C         37.81143        48.82926         0.56804
C         36.55176        48.13624         0.37941
C         37.83383        50.22122         0.74886
C         36.57032        50.96750         0.90462
C         37.82032        53.14052         0.76622
C         36.54545        52.41862         0.64531
C         37.81456        54.62569         0.41841
C         36.56870        55.17432        -0.12476
C         40.26852        15.93219         1.09847
C         39.05254        16.64344         0.96305
C         40.23112        18.79226         0.98466
C         39.00886        18.03931         0.87800
C         40.23126        20.16297         0.77377
C         39.01245        20.90443         0.58575
C         40.29018        23.06421         0.68748
C         39.03615        22.32448         0.50801
C         40.30858        24.48847         0.77953
C         39.06558        25.24266         0.47646
C         40.20471        27.42123         1.08076
C         38.89626        26.63240         1.07228
C         40.21772        28.81113         0.57353
C         39.01469        29.44886         0.24131
C         40.32516        31.59884        -0.14401
C         39.00745        30.82476        -0.27398
C         40.22966        33.06384        -0.12121
C         39.04324        33.71846        -0.50745
C         40.28788        35.95040        -0.30265
C         39.15270        35.15769        -0.98054
C         40.26020        37.30161        -0.22834
C         39.14742        38.14786        -0.84234
C         40.22197        40.26286        -0.04735
C         39.04613        39.55707        -0.28015
C         40.24093        41.68040         0.14084
C         39.01839        42.38443         0.04422
C         40.26456        44.52124         0.40379
C         39.02253        43.82258         0.15905
C         40.28678        45.94817         0.53141
C         39.08808        46.69609         0.38644
C         40.29245        48.78052         0.86411
C         39.06497        48.09532         0.57759
C         40.30405        50.22573         0.91804
C         39.07430        50.94226         0.80307
C         40.31577        53.04898         0.74424
C         39.09312        52.36674         0.77050
C         40.35523        54.50129         0.42606
C         39.12655        55.29585         0.13647
C         40.35812        57.44078         0.30528
C         39.19628        56.78437         0.15268
C         42.72873        15.90222         1.33372
C         41.47267        16.59132         1.26097
C         42.77439        18.72482         1.19812
C         41.45775        18.07548         1.52012
C         42.78232        20.16713         0.89369
C         41.50654        20.90910         0.67497
C         42.75166        23.08175         0.93802
C         41.51226        22.37942         0.81480
C         42.75755        24.50902         0.99751
C         41.50742        25.18868         0.97957
C         42.77104        27.40334         0.88032
C         41.50894        26.66725         1.11032
C         42.71576        28.79053         0.80767
C         41.47650        29.48659         0.55961
C         42.59155        31.65940         0.85311
C         41.50927        30.89493         0.37318
C         42.32429        33.02679         1.06303
C         41.32623        33.77755         0.42608
C         42.79421        35.97954         0.42214
C         41.58850        35.18124        -0.09163
C         42.79122        37.34558         0.16053
C         41.48163        38.04707         0.18972
C         42.74074        40.25854        -0.00490
C         41.48418        39.52950         0.13860
C         42.73143        41.64336         0.22687
C         41.47718        42.37258         0.35084
C         42.71006        44.50803         0.73927
C         41.48410        43.79458         0.49944
C         42.74880        45.89625         0.92081
C         41.51209        46.63699         0.81240
C         42.74587        48.72031         1.38959
C         41.49522        48.03782         0.99103
C         42.76403        50.23329         1.38338
C         41.52099        50.94882         1.03667
C         42.82544        53.06467         0.91528
C         41.54746        52.35182         0.89709
C         42.85936        54.47925         0.79664
C         41.59225        55.23645         0.81540
C         42.91604        57.36202         0.45511
C         41.60708        56.73712         0.68999
C         43.92020        16.57464         1.35569
C         45.23403        18.71651         1.04369
C         43.96775        18.02113         1.22328
C         45.29542        20.16548         1.30101
C         43.98199        20.94150         1.28431
C         45.22717        23.07109         1.07633
C         43.99821        22.38646         1.04886
C         45.21389        24.49947         1.08726
C         44.00773        25.22304         1.06811
C         45.22474        27.38506         0.96525
C         44.02367        26.68384         0.98442
C         45.27594        28.84654         0.77401
C         43.96950        29.58832         0.76672
C         45.24406        31.78462         1.38073
C         43.90958        31.03416         1.19598
C         45.32178        33.25636         1.07511
C         44.21094        34.08115         1.20320
C         45.28216        36.02490         0.26207
C         44.07807        35.36416         0.61849
C         45.21896        37.39786        -0.09674
C         44.00209        38.07148        -0.03265
C         45.25981        40.24230        -0.23199
C         43.95666        39.51549        -0.49303
C         45.21377        41.70179        -0.04849
C         43.95274        42.34591         0.31386
C         45.22988        44.37305         1.23851
C         43.94756        43.70754         0.86204
C         45.24202        45.85890         1.45364
C         43.99729        46.60563         1.19828
C         45.27641        48.74085         1.38005
C         44.03533        47.99405         1.31324
C         45.24513        50.19741         1.38302
C         44.07027        50.92094         1.28332
C         45.26609        53.08950         1.12139
C         44.04774        52.36582         1.10920
C         45.29911        54.47226         0.82294
C         44.07160        55.19281         0.71887
C         44.05547        56.63103         0.50858
C         47.60825        18.79651         0.51534
C         46.41111        18.08156         0.65975
C         47.68317        20.19894         0.66810
C         46.51077        20.93348         1.00135
C         47.71605        23.06976         0.77362
C         46.49302        22.34998         1.00340
C         47.75377        24.49539         0.85669
C         46.50747        25.19114         1.23605
C         47.75555        27.41193         0.88644
C         46.50281        26.70922         1.21165
C         47.74169        28.85811         0.95146
C         46.55620        29.54765         1.05027
C         47.80149        31.71271         0.84967
C         46.59460        31.01042         1.46427
C         47.78340        33.18899         0.80278
C         46.50950        33.91289         0.63542
C         47.74769        35.99291        -0.00833
C         46.51086        35.28411         0.30456
C         47.72693        37.37951        -0.31072
C         46.43997        38.09838        -0.62905
C         47.73245        40.25884        -0.16523
C         46.45519        39.57449        -0.28144
C         47.78316        41.62727         0.15459
C         46.52946        42.40216         0.23186
C         47.85186        44.43480         1.00610
C         46.54280        43.67316         1.01016
C         47.83446        45.90973         1.07958
C         46.58503        46.62456         1.43719
C         47.76699        48.80291         1.05276
C         46.52216        48.08590         1.27070
C         47.77891        50.20905         1.14122
C         46.54945        50.88925         1.73830
C         47.80788        53.14053         1.26259
C         46.51468        52.40519         1.51470
C         47.73987        54.45878         0.61697
C         46.56021        55.11225         0.51558
C         50.12368        20.23036         0.21743
C         48.91957        20.92144         0.45963
C         50.14134        23.05874         0.24941
C         48.92801        22.34766         0.50411
C         50.14943        24.51643         0.26949
C         48.93139        25.23456         0.61374
C         50.13841        27.44153         0.34801
C         48.93183        26.68943         0.66628
C         50.21484        28.82115         0.47194
C         49.06886        29.57749         1.11741
C         50.22951        31.72617         0.35119
C         48.98823        31.03981         0.70603
C         50.25741        33.12354         0.17929
C         49.05653        33.91807         0.47598
C         50.18858        35.97339        -0.33112
C         48.98360        35.31344         0.01285
C         50.17444        37.38521        -0.50467
C         48.93652        38.09131        -0.43539
C         50.17882        40.23314        -0.44095
C         48.94925        39.53592        -0.38067
C         50.22418        41.64153        -0.17902
C         49.01523        42.34402         0.19421
C         50.22762        44.49633         0.32297
C         49.03267        43.74535         0.44125
C         50.21311        45.88902         0.49047
C         48.99624        46.61852         0.78002
C         50.19028        48.80819         0.62483
C         48.99681        48.08515         0.81210
C         50.20854        50.23036         0.67388
C         48.99626        50.93166         0.96869
C         50.26912        53.02040         1.04775
C         49.05374        52.35341         1.10756
C         51.29903        20.92097        -0.01454
C         52.58084        23.02027        -0.39132
C         51.32102        22.32763        -0.03004
C         52.56645        24.52989        -0.41508
C         51.30746        25.21656        -0.04973
C         52.61865        27.41651        -0.29794
C         51.29109        26.68402        -0.16428
C         52.65254        28.86034        -0.01862
C         51.43851        29.54786         0.20505
C         52.66180        31.68365        -0.08471
C         51.44405        30.98659         0.18178
C         52.66381        33.09790        -0.29091
C         51.44036        33.81830        -0.19355
C         52.61637        35.93056        -0.73444
C         51.42269        35.24000        -0.40614
C         52.57220        37.34203        -0.95644
C         51.39033        38.08480        -0.77755
C         52.58475        40.26352        -0.94818
C         51.39730        39.53734        -0.76015
C         52.63869        41.68036        -0.70892
C         51.45088        42.32672        -0.24913
C         52.77173        44.49840        -0.16858
C         51.49805        43.74592         0.13061
C         52.61753        45.96776        -0.33573
C         51.49516        46.62373         0.41127
C         52.66883        48.87261        -0.03876
C         51.49098        48.11654         0.46747
C         52.65566        50.27783         0.07358
C         51.43631        50.95917         0.50647
C         51.45188        52.33174         0.74964
C         55.02915        23.01037        -0.02031
C         53.87681        22.33564        -0.16661
C         55.08427        24.48269         0.00545
C         53.84961        25.25374        -0.22372
C         55.10376        27.38041        -0.26857
C         53.87515        26.63946        -0.21127
C         55.11267        28.78022        -0.23080
C         53.90243        29.53889        -0.07731
C         55.10772        31.69709        -0.36218
C         53.90757        30.97523        -0.14004
C         55.11692        33.09260        -0.59179
C         53.87971        33.80380        -0.56481
C         55.09485        35.89350        -1.02772
C         53.86625        35.21082        -0.79400
C         55.07127        37.30142        -1.47191
C         53.76581        38.03412        -1.45940
C         55.08336        40.24723        -1.37055
C         53.78367        39.54859        -1.43114
C         54.98792        41.71608        -1.68460
C         53.82026        42.42544        -1.01872
C         55.03546        44.61764        -1.20712
C         53.90213        43.82876        -0.85541
C         55.07139        46.03116        -1.04780
C         53.81021        46.75870        -0.75889
C         55.03312        48.92549        -0.70335
C         53.83701        48.21009        -0.47468
C         54.99382        50.33402        -0.60988
C         53.82512        50.99340        -0.26657
C         57.68096        24.50607        -0.56184
C         56.43059        25.20574        -0.23049
C         57.64937        27.38197        -0.86407
C         56.32128        26.63205        -0.63509
C         57.66289        28.81582        -0.60513
C         56.40731        29.48907        -0.24258
C         57.61685        31.65101        -0.88172
C         56.39928        30.99541        -0.26970
C         57.60466        33.14367        -0.67509
C         56.36604        33.81660        -0.71652
C         57.58478        35.98419        -0.87940
C         56.33759        35.24102        -0.88794
C         57.59656        37.39910        -1.01685
C         56.35672        38.09823        -1.40811
C         57.54217        40.27824        -1.16371
C         56.29441        39.57873        -1.29587
C         57.53464        41.74809        -1.09666
C         56.25205        42.47931        -1.35064
C         57.55780        44.62996        -1.42985
C         56.26871        43.93073        -1.79331
C         57.54470        46.12132        -1.64013
C         56.25690        46.78133        -1.17492
C         57.50471        48.87691        -0.95306
C         56.27231        48.19918        -0.98892
C         58.83606        25.19492        -0.81293
C         60.09633        27.34762        -0.65527
C         58.89897        26.62699        -0.77778
C         60.10036        28.74042        -0.58899
C         58.89553        29.49852        -0.53368
C         60.04250        31.71429        -0.30904
C         58.90010        30.95405        -0.48961
C         60.02715        33.12275        -0.39254
C         58.83392        33.85051        -0.57892
C         59.99724        36.06172        -0.50950
C         58.81331        35.30326        -0.64061
C         59.99022        37.44114        -0.63081
C         58.79384        38.13800        -0.90996
C         59.97104        40.35027        -1.10165
C         58.77407        39.59684        -1.06676
C         59.97758        41.75035        -1.20454
C         58.79835        42.49165        -1.18856
C         59.97073        44.69814        -1.01207
C         58.74796        43.94698        -1.22180
C         59.97782        46.06622        -0.95720
C         58.78046        46.81735        -1.13240
C         58.73320        48.19086        -0.94510
O         44.46121        43.68975         2.28602
O         48.60744        33.78059         1.88101
O         39.87189        31.03929        -1.42692
O         45.91677        42.52737        -1.09697
O         39.91103        54.73106        -0.97593
O         51.79445        27.11905        -1.48188
O         34.11325        34.53609        -2.12569
O         53.52842        38.80387        -2.68792
O         32.57826        22.89658        -1.99481
O         37.65884        36.72283        -2.20622
O         52.50617        44.03533         1.18092
O         51.87450        47.29690         1.65255
O         37.74878        54.18582         1.80943
O         42.61378        49.47952         2.64214
O         55.91596        24.98142         1.11794
O         56.77437        26.92658        -1.98017
O         55.83833        37.56663        -2.68565
O         40.88920        27.20789         2.36295
O         44.58669        20.54871         2.54439
O         41.36839        38.76716         1.47605
O         35.80066        50.56463         2.09524
O         24.40013        31.18638         0.64703
O         41.46076        56.07811         2.00834
O         27.26528        37.62236         1.61540
O         37.29889        46.54510        -1.33598
O         47.35882        43.67651         2.20016
O         43.13396        33.68165         1.98748
O         47.20802        53.11325         2.60809
O         42.34105        20.46283        -0.48470
O         28.95537        30.19647         1.37548
O         38.65510        25.04310        -0.90679
O         44.68998        29.36983        -0.49933
O         44.41817        31.37348         2.52436
O         56.60928        30.32391         0.99516
O         27.80249        45.31110         1.57236
O         52.71739        46.39920        -1.72333
O         56.64925        42.29153         0.02303
O         45.93401        46.20128         2.68466
O         46.58654        25.96615         2.48423
O         52.50124        23.74378        -1.66945
O         39.55999        35.02136        -2.38042
H         39.07145        35.71020        -2.89191
O         56.16795        44.00941        -3.24564
H         55.47096        43.37004        -3.53785
O         46.30304        38.04986        -2.10271
H         47.09030        38.49261        -2.48687
O         36.63885        43.94699        -1.99037
H         36.81695        44.90194        -2.18392
O         57.45449        31.44492        -2.33110
H         58.18818        31.91270        -2.78326
O         41.31767        18.21588         2.99428
H         42.06251        17.72397         3.40259
O         46.67691        50.66682         3.17094
H         47.09473        51.47778         3.54701
O         31.49068        29.47962         1.97406
H         30.59465        29.84356         2.19602
O         49.36852        29.59790         2.54450
H         48.64209        30.11236         2.97735
O         38.50159        26.39934         2.45583
H         39.30075        26.57579         3.01069
O         33.55414        20.97525         1.66436
H         34.29188        21.34259         2.19649
O         54.77017        41.77403        -3.13615
H         54.20586        41.01015        -3.39124
O         31.40622        26.48436         1.78547
H         31.43515        27.40673         2.14176
O         32.45631        32.61176        -2.29050
H         32.81603        33.35595        -2.83019
O         43.82313        39.45381        -1.95425
H         44.59286        38.92459        -2.28533
O         46.92530        30.98345         2.89266
H         46.07167        30.94139         3.38568
O         57.57345        46.32984        -3.10270
H         56.97366        45.64879        -3.49736
O         24.07216        39.39084         1.93475
H         24.87558        38.91149         2.23244
O         39.60233        38.37900        -2.20854
H         39.02190        37.85178        -2.80582
O         42.07882        34.89022        -1.44925
H         41.28925        34.77320        -2.04029
H         22.21824        26.87987        -2.10156
H         22.13346        29.32116        -1.71772
H         22.21059        31.29802        -1.87272
H         22.20484        33.69758        -1.54985
H         22.05270        35.50460        -0.84733
H         22.01500        37.90265        -0.41411
H         21.94573        39.76408         0.05950
H         22.01685        42.11373        -0.43828
H         22.02555        43.99531        -0.56681
H         22.06764        46.43008        -0.83008
H         25.51625        23.49705        -1.66530
H         23.45025        24.75965        -2.05262
H         25.42416        49.79872        -0.90446
H         23.31192        48.53996        -0.98890
H         27.08236        22.54360        -1.25680
H         27.03370        50.76836        -0.55983
H         29.19893        21.33560        -1.15624
H         29.12718        51.99167        -0.42095
H         32.89133        19.13514        -0.54142
H         30.95938        20.31286        -1.36918
H         32.84139        54.15724         0.10469
H         30.74900        52.95203        -0.14688
H         34.39959        18.22048         0.34989
H         34.49746        54.93159        -0.45159
H         36.48964        16.99717         0.63723
H         36.58768        56.15815        -0.61494
H         40.25243        14.83385         1.03372
H         38.13200        16.05589         0.84872
H         40.38988        58.53883         0.23394
H         38.26957        57.34370        -0.04470
H         42.72081        14.80170         1.34260
H         42.95469        58.43614         0.22081
H         44.86179        16.01328         1.42459
H         45.01141        57.15111         0.36236
H         48.50291        18.23076         0.22653
H         46.41619        17.00102         0.46071
H         48.66016        54.91541         0.22709
H         46.55191        56.11690         0.07294
H         50.14636        19.13387         0.19782
H         50.31019        54.10511         1.21479
H         52.21083        20.35043        -0.23170
H         52.38731        52.90197         0.69294
H         55.96141        22.46383         0.18063
H         53.89479        21.23899        -0.09917
H         55.88651        50.93270        -0.83219
H         53.83464        52.09060        -0.23623
H         57.70737        23.40915        -0.50295
H         57.52586        49.96305        -0.79448
H         59.77270        24.63671        -0.96008
H         61.05036        26.80152        -0.62729
H         61.06632        29.26136        -0.54542
H         61.00151        31.22383        -0.08781
H         60.98140        33.65072        -0.27072
H         60.95277        35.56046        -0.30751
H         60.93707        37.98508        -0.51837
H         60.94014        39.83552        -1.07584
H         60.95030        42.25485        -1.28117
H         60.90836        44.15319        -0.84086
H         60.91029        46.60288        -0.72630
H         59.65598        48.74524        -0.71808
