         324
 CSIRO Nanostructure Databank - Neutral Graphene Oxide Data Set
C          1.79307         2.20932         2.69637
C          1.72057         3.60717         2.56675
C          2.92083         1.52166         2.28874
C          2.76685         4.34983         1.99876
C          1.54637         6.55978         2.19982
C          1.49546         7.96917         2.06500
C          2.63940         5.79051         1.81088
C          2.53675         8.72773         1.51653
C          1.42884        10.95672         1.85735
C          1.45706        12.31068         1.90267
C          2.58619        10.16279         1.50132
C          2.74777        13.07805         1.78817
C          1.46261        15.27874         1.54331
C          1.41051        16.63420         1.21727
C          2.61749        14.51628         1.30825
C          2.52715        17.27991         0.64631
C          2.53202        18.71099         0.37700
C          4.02563         2.22758         1.73368
C          3.94681         3.64580         1.56062
C          5.23020         1.55569         1.42326
C          5.08750         4.31979         1.01517
C          3.71505         6.47518         1.07932
C          3.65962         7.98301         0.91727
C          5.04695         5.79979         0.99138
C          4.89332         8.70948         0.56611
C          3.75001        10.85812         1.04121
C          3.80265        12.28098         1.04457
C          4.89316        10.12189         0.55257
C          4.93104        12.95978         0.53187
C          3.74382        15.15461         0.73406
C          3.68926        16.52688         0.39876
C          4.95376        14.39044         0.44591
C          4.86280        17.16824        -0.31247
C          3.66415        19.37342         0.00907
C          4.91708        18.67961        -0.20285
C          6.35734         2.24041         0.94101
C          6.26341         3.64861         0.67149
C          7.61055         1.55900         0.83433
C          7.53710         4.40683         0.27217
C          6.17909         6.55284         0.38118
C          6.00562         7.99338         0.09404
C          7.23452         5.78961        -0.32806
C          7.08783         8.68056        -0.48804
C          6.05319        10.81297         0.08802
C          6.08148        12.23129         0.07882
C          7.16059        10.09362        -0.44175
C          7.24585        12.89813        -0.38734
C          6.12332        15.04754         0.03764
C          6.16108        16.54822         0.18252
C          7.27191        14.33292        -0.37140
C          7.36857        17.20647        -0.42409
C          6.10561        19.33299        -0.39537
C          7.36511        18.62076        -0.58598
C          8.76158         2.16569         0.32333
C          8.59561         3.47932        -0.36531
C         10.00042         1.49420         0.31045
C          9.90389         4.03879        -0.99909
C          7.98602         6.50541        -1.22706
C          8.06692         7.95497        -1.23068
C          9.96669         5.38258        -1.53547
C          9.15443         8.66278        -1.77063
C          8.34020        10.76430        -0.89823
C          8.37594        12.16200        -0.84021
C          9.45380        10.01836        -1.47040
C          9.54958        12.85717        -1.47389
C          8.49183        15.01309        -0.68495
C          8.53223        16.45888        -0.65217
C          9.65421        14.28665        -1.00910
C          9.75847        17.13225        -0.90576
C          8.55969        19.27779        -0.90964
C          9.78900        18.56136        -1.02090
C         11.21238         2.12019        -0.07931
C         11.19404         3.42044        -0.65327
C         12.48060         1.52764         0.19878
C         12.39741         4.16761        -0.77643
C         11.14198         6.14403        -1.56605
C         11.11866         7.51577        -1.97334
C         12.37885         5.55148        -1.16623
C         12.18485         8.38517        -1.77453
C         10.75112        10.63792        -1.63922
C         10.83555        12.03471        -1.45324
C         11.99633         9.87933        -2.19990
C         12.07875        12.74518        -1.34658
C         10.90768        14.92880        -0.97689
C         10.96380        16.37517        -0.91643
C         12.09055        14.13727        -1.04318
C         12.18822        17.06316        -0.95288
C         11.03333        19.20466        -1.23423
C         12.24830        18.47649        -1.17933
C         13.66517         2.21840         0.00602
C         13.65491         3.56460        -0.46921
C         14.95753         1.55668         0.41734
C         14.87822         4.29650        -0.66860
C         13.55656         6.33341        -1.29230
C         13.44268         7.72547        -1.58929
C         14.85043         5.67807        -1.12573
C         14.64822         8.42951        -2.06160
C         13.32545        10.66397        -1.98675
C         13.33414        12.03893        -1.40232
C         14.63665         9.92798        -2.04236
C         14.54418        12.64814        -1.04044
C         13.33881        14.76948        -0.64052
C         13.40233        16.33621        -0.61213
C         14.60747        14.05286        -0.73592
C         14.70197        16.96275        -0.78497
C         13.52888        19.09033        -1.27661
C         14.73783        18.36222        -1.11399
C         16.19633         2.27163        -0.06854
C         16.11466         3.64582        -0.46120
C         17.38569         1.55668        -0.09553
C         17.36988         4.39128        -0.65785
C         16.03550         6.35689        -1.44013
C         15.96662         7.70321        -2.05207
C         17.33089         5.73406        -1.29296
C         17.23889         8.50274        -2.22963
C         15.87284        10.54252        -1.52345
C         15.79292        11.85249        -0.90221
C         17.16381         9.97908        -1.90689
C         17.07015        12.54641        -0.41527
C         15.79382        14.76270        -0.49188
C         15.86987        16.20314        -0.56858
C         17.02166        14.02328        -0.13905
C         17.14316        16.88727        -0.56303
C         16.00296        18.98873        -1.20096
C         17.18907        18.28237        -0.90359
C         18.63012         2.13488        -0.48968
C         18.66860         3.59835        -0.66942
C         19.79922         1.41135        -0.65087
C         19.84154         4.16839        -1.33903
C         18.50704         6.33432        -1.71158
C         18.54705         7.75668        -2.18554
C         19.76187         5.55093        -1.80266
C         19.83851         8.53760        -2.00377
C         18.46277        10.70568        -1.44745
C         18.37973        11.94088        -0.67374
C         19.78495         9.97992        -1.53109
C         19.57574        12.58688        -0.24567
C         18.30347        14.77266         0.05245
C         18.35460        16.22916        -0.23146
C         19.57518        14.01339         0.04093
C         19.58011        16.92533        -0.12741
C         18.45356        18.92893        -0.95545
C         19.63715        18.30808        -0.54602
C         21.04862         2.03233        -1.02096
C         21.03143         3.44494        -1.42143
C         22.23328         1.32604        -0.92630
C         22.28111         4.14296        -1.58674
C         21.11468         6.28799        -1.89070
C         21.12813         7.77898        -1.81138
C         22.31822         5.53736        -1.54507
C         22.28168         8.45295        -1.14197
C         20.92653        10.53570        -0.74680
C         20.79018        11.86206        -0.20164
C         22.09275         9.80595        -0.57542
C         21.92765        12.48274         0.49257
C         20.73435        14.71789         0.29137
C         20.75656        16.17730         0.33336
C         21.93085        13.96670         0.71159
C         21.85722        16.77453         0.90972
C         20.87542        19.06295        -0.70511
C         21.99144        18.92067         0.09218
C         23.53283         1.89510        -1.30966
C         23.55217         3.39481        -1.63836
C         24.78676         1.26866        -0.85552
C         24.83430         4.15667        -1.46655
C         23.52119         6.23263        -1.13709
C         23.38041         7.60054        -0.48357
C         24.72111         5.57793        -1.06669
C         24.68809         8.38056        -0.52348
C         23.30901        10.39145         0.03408
C         23.26964        11.82739         0.47269
C         24.61396         9.79750        -0.33817
C         24.44529        12.68140         0.15723
C         23.23063        14.68200         0.81163
C         23.08313        16.04414         1.42270
C         24.42112        14.11983         0.43209
C         24.34926        16.84135         1.28536
C         23.29539        19.45927        -0.13434
C         24.43461        19.01581         0.55624
C         25.99302         1.93214        -0.80066
C         26.09437         3.38611        -1.09158
C         27.19843         1.27656        -0.36060
C         27.25340         4.10449        -0.52608
C         25.90641         6.28182        -0.51167
C         25.90798         7.76323        -0.59715
C         27.18858         5.55765        -0.30923
C         27.18293         8.52437        -0.61012
C         25.74301        10.59547        -0.33877
C         25.53085        12.01340        -0.36383
C         27.13381        10.05326        -0.44947
C         27.34018        13.10150         0.09471
C         25.70471        14.98619         0.27593
C         25.55882        16.33577         0.96790
C         27.00530        14.28098         0.67576
C         26.78094        17.17277         1.19426
C         25.76964        19.31278         0.22009
C         26.89679        18.57993         0.69217
C         28.37124         1.96911        -0.09594
C         28.38728         3.42560        -0.13190
C         29.57208         1.29611         0.33043
C         29.56446         4.15904         0.29300
C         28.44958         6.30654        -0.16395
C         28.45691         7.76089        -0.32202
C         29.58898         5.60855         0.24646
C         29.62101         8.51394         0.34626
C         28.28705        10.77416         0.24498
C         28.31823        12.12760         0.57462
C         29.35566         9.90868         0.84429
C         29.39155        12.76778         1.34127
C         27.98160        14.86913         1.67302
C         28.03473        16.40473         1.51059
C         29.34139        14.17301         1.56987
C         29.34226        17.06097         1.21053
C         28.15020        19.19898         0.73312
C         29.35067        18.53776         1.12024
C         30.67762         2.00214         0.71060
C         30.69565         3.44413         0.70727
C         31.86526         4.16151         1.11916
C         30.75304         6.31841         0.74521
C         30.70661         7.71477         0.94693
C         31.88419         5.53014         1.15517
C         31.78046         8.43585         1.57600
C         30.51399        10.56519         1.60393
C         30.55712        12.04218         1.68323
C         31.74549         9.77854         1.78629
C         31.69586        12.73845         2.11916
C         30.53500        14.86259         1.87224
C         30.61547        16.32645         1.57633
C         31.70671        14.13012         2.13322
C         31.75557        17.16480         1.94876
C         30.56033        19.20338         1.28866
C         31.72358        18.52032         1.74620
O         29.35656         9.96934         2.30267
O         29.56760         8.31333        -1.09399
O         20.05800         9.63037        -2.92292
O         21.84029        18.12072         1.25336
O          3.26764         7.06763        -0.18415
O         17.90451         8.08491        -3.45506
O         23.34233        10.76548         1.46598
O         16.24676        11.77895         0.53504
O          8.83543         3.31144        -1.76024
O         27.30712        17.07247         2.58414
O         17.47560        14.39245         1.21693
O         14.11076        10.61457        -3.24508
O         20.44568         5.78541        -3.07894
O          6.09409         6.35924         1.88259
O          9.99086         7.95583        -2.63443
O         24.24144        18.18116         1.68693
O         22.97832         7.35516         0.83554
O         13.24226        15.53752         0.59881
O         18.25250         4.35845         0.52528
O         22.23055         8.35494        -2.59426
O         23.57712         2.40395        -2.69708
O          8.83388         5.85677        -2.14655
O         25.83211         3.83537        -2.47818
O         26.24650         5.82686         0.86007
O         26.55640        12.71325        -1.00753
O         17.88739        10.88523        -2.79200
O         30.15344        16.47341         0.15743
O         27.36541         9.43241        -1.74815
O         15.14939         7.78082        -3.27486
O         21.61791        13.04589         1.81245
O         22.87699        15.87635         2.85945
H         22.80278        16.77598         3.24465
O          4.73987        16.84390        -1.72466
H          3.91381        17.25284        -2.05692
O         27.52898        14.57699         3.01388
H         27.11907        15.40445         3.36611
O         14.96699         0.17870         0.02559
H         14.88717         0.13493        -0.94916
O          3.25823        13.19640         3.16988
H          3.35934        12.28638         3.52165
O         11.73609         9.84437        -3.61489
H         12.60945         9.92489        -4.07136
O          9.21787        12.97769        -2.91191
H          9.23409        12.07227        -3.29153
O          8.20488         4.73331         1.53413
H          7.56464         5.28742         2.05331
O         25.77332        15.30242        -1.14297
H         26.03261        14.47039        -1.60643
O          6.22674        16.83350         1.61311
H          7.05187        16.43945         1.96542
H          0.94450         1.66582         3.13448
H          0.81111         4.11850         2.90989
H          2.98479         0.43067         2.40596
H          0.69208         6.07729         2.69589
H          0.61312         8.47942         2.47654
H          0.47718        10.43788         2.04333
H          0.53770        12.85183         2.16816
H          0.58112        14.81831         2.01034
H          0.49919        17.21204         1.42861
H          1.60101        19.27064         0.55105
H          5.30586         0.47683         1.62466
H          3.64928        20.46902        -0.09772
H          7.67079         0.51918         1.18857
H          6.12830        20.43435        -0.40150
H         10.05373         0.49738         0.77236
H          8.56476        20.37129        -1.03191
H         12.51650         0.50738         0.60712
H         11.06360        20.29542        -1.37397
H         14.99353         1.55652         1.54448
H         13.58729        20.17448        -1.45444
H         17.35445         0.48670         0.15988
H         16.06324        20.05504        -1.46446
H         19.79257         0.32705        -0.46155
H         18.49044        19.97706        -1.28747
H         22.21584         0.30703        -0.50920
H         20.89871        19.81233        -1.51066
H         24.74245         0.21708        -0.53136
H         23.43773        20.11418        -1.00567
H         27.17653         0.18408        -0.22890
H         25.95917        20.18304        -0.42771
H         29.58030         0.19653         0.35201
H         28.21358        20.26816         0.47769
H         31.58520         1.47253         1.03602
H         32.75437         3.59168         1.42609
H         32.79976         6.03313         1.49379
H         32.70110         7.89503         1.83414
H         32.64164        10.27862         2.17712
H         32.61058        12.19848         2.39640
H         32.64067        14.65636         2.37334
H         32.63118        16.70489         2.42808
H         30.59919        20.29475         1.16143
H         32.61131        19.11921         1.99564
