         324
 CSIRO Nanostructure Databank - Neutral Graphene Oxide Data Set
C          1.70195         2.11968        -2.22140
C          1.59829         3.53186        -2.00190
C          2.87456         1.43239        -2.08974
C          2.70306         4.30159        -1.68764
C          1.54070         6.50134        -1.83609
C          1.51479         7.87693        -1.67643
C          2.70034         5.74871        -1.55499
C          2.62287         8.58648        -1.14551
C          1.73013        10.81324        -1.85718
C          1.65692        12.16414        -1.69688
C          2.59633        10.00752        -1.05649
C          2.38059        12.89475        -0.59184
C          1.49176        15.19038        -1.37104
C          1.63769        16.53686        -1.48510
C          2.62671        14.33731        -0.99465
C          2.80744        17.21816        -0.97526
C          2.88618        18.66753        -1.02690
C          4.07321         2.10280        -1.57418
C          3.96871         3.60174        -1.40089
C          5.42228         1.50648        -1.75448
C          5.21685         4.41160        -1.48294
C          3.87327         6.45195        -1.09703
C          3.81425         7.84992        -0.80623
C          5.13525         5.80339        -1.01512
C          4.97722         8.51068        -0.31174
C          3.56749        10.69753        -0.20893
C          3.64720        12.16187        -0.19132
C          4.83159         9.89309         0.19094
C          4.77246        12.81923         0.34614
C          3.84305        15.03984        -0.38030
C          3.78729        16.50505        -0.30403
C          4.77789        14.24458         0.43470
C          4.76686        17.23915         0.52106
C          3.92968        19.35703        -0.48946
C          4.97408        18.68648         0.26049
C          6.55617         2.23028        -1.63584
C          6.53544         3.71351        -1.50636
C          7.91759         1.62499        -1.85845
C          7.69799         4.43514        -0.94388
C          6.31956         6.48309        -0.66258
C          6.22669         7.85366        -0.24590
C          7.58133         5.78628        -0.61020
C          7.39599         8.50743         0.31350
C          6.02889        10.67077         0.53866
C          5.98313        12.05147         0.70776
C          7.23823         9.88167         0.83770
C          7.22792        12.76814         0.95305
C          5.84718        14.94915         1.14291
C          5.83680        16.45441         1.22458
C          7.17717        14.21696         1.26905
C          7.11764        17.16153         1.57313
C          6.07212        19.34861         0.73805
C          7.20745        18.67261         1.39968
C          9.00255         2.33356        -1.07342
C          8.90355         3.70102        -0.69774
C         10.16179         1.62957        -0.80786
C         10.00449         4.32785         0.00942
C          8.84805         6.55087        -0.31539
C          8.63456         7.88147         0.37723
C          9.93161         5.69551         0.29700
C          9.83525         8.58207         0.80078
C          8.52955        10.66217         1.10874
C          8.44501        12.11851         1.01317
C          9.82068         9.97314         0.97017
C          9.72612        12.84713         0.96144
C          8.40507        15.04325         1.22226
C          8.36869        16.39845         1.39819
C          9.71539        14.35341         0.98053
C          9.68085        17.13462         1.21671
C          8.53784        19.32784         1.32926
C          9.72757        18.63578         1.42518
C         11.27759         2.18389        -0.10912
C         11.17244         3.54079         0.37170
C         12.45314         1.37856        -0.16077
C         12.30792         4.26715         0.88464
C         10.99073         6.36908         1.13150
C         11.07578         7.86591         0.96612
C         12.32172         5.68453         0.99779
C         12.27439         8.53280         1.24065
C         11.03908        10.72174         1.14030
C         10.97846        12.11036         1.25328
C         12.29648         9.99050         1.29491
C         12.22007        12.89494         1.35618
C         10.89924        15.03908         1.56610
C         10.70495        16.32907         1.95447
C         12.16581        14.32689         1.81671
C         12.49970        17.41792         1.91950
C         10.99155        19.32144         1.32687
C         12.28258        18.73726         1.34372
C         13.61515         1.61401         0.59693
C         13.49602         3.61630         1.29183
C         14.94787         1.32328         0.33900
C         14.77267         4.23471         1.28346
C         13.53145         6.37899         1.23564
C         13.52665         7.81008         1.39134
C         14.77925         5.66218         1.27805
C         14.75365         8.48664         1.63536
C         13.47428        10.66365         1.56068
C         13.51221        12.12852         1.47591
C         14.73037         9.96286         2.02805
C         14.78804        12.84551         1.78742
C         13.49418        15.11534         1.88075
C         13.50883        16.56251         1.56006
C         14.80288        14.35875         1.73924
C         14.57183        17.12275         0.70139
C         13.43200        19.35297         0.79660
C         14.61970        18.60519         0.56198
C         16.04481         2.03291         0.97355
C         15.98410         3.46483         1.31455
C         17.25364         1.35116         1.00750
C         17.19691         4.19544         1.46746
C         16.01108         6.35740         1.43923
C         15.97194         7.77943         1.64841
C         17.21917         5.60506         1.52941
C         17.25082         8.48895         1.85642
C         15.99360        10.71581         1.61872
C         16.01803        12.10064         1.44928
C         17.26324        10.00292         1.77401
C         17.21235        12.84930         1.23843
C         15.98314        14.98492         1.12353
C         15.86089        16.33012         0.53069
C         17.17761        14.25956         0.97738
C         17.08775        17.07016         0.21115
C         15.80433        19.20172         0.13623
C         17.03486        18.47745        -0.01886
C         18.50312         1.94728         1.46416
C         18.46933         3.45187         1.63451
C         19.78373         1.25174         1.17195
C         19.73217         4.17397         1.31294
C         18.50554         6.32348         1.92023
C         18.51290         7.78662         1.55754
C         19.78286         5.63640         1.51050
C         19.65696         8.46762         1.18906
C         18.50058        10.65268         1.30929
C         18.49345        12.13192         1.21933
C         19.61796         9.91979         1.00154
C         19.70474        12.84174         0.65986
C         18.35444        14.92323         0.40349
C         18.30604        16.35739         0.11029
C         19.51586        14.21510         0.15581
C         19.47806        17.06518        -0.23444
C         18.23131        19.16630        -0.31811
C         19.45756        18.47799        -0.42092
C         20.97589         1.90407         1.09534
C         20.98563         3.39707         1.10641
C         22.22160         1.22451         0.75628
C         22.28797         4.10954         1.29489
C         20.94092         6.32118         1.27140
C         20.93112         7.75557         1.03926
C         22.29601         5.64607         1.41073
C         22.08489         8.38598         0.59128
C         20.74042        10.55786         0.26324
C         20.83694        12.03125         0.14628
C         21.98165         9.73836         0.00512
C         21.95368        12.66445        -0.35319
C         20.68698        14.83746        -0.48122
C         20.71859        16.35787        -0.57659
C         21.97360        14.11829        -0.43000
C         22.01145        17.07596        -0.50273
C         20.67495        19.13728        -0.77311
C         21.94121        18.51665        -0.74232
C         23.39432         1.88479         0.56171
C         23.49312         3.33550         0.87211
C         24.66358         1.15977         0.14544
C         24.65413         4.07964         0.30772
C         23.40549         6.32168         0.63503
C         23.35069         7.67863         0.42010
C         24.61999         5.57462         0.24023
C         24.57595         8.42765         0.11049
C         23.23173        10.43701        -0.44501
C         23.18320        11.91302        -0.73890
C         24.52761         9.78470        -0.14457
C         24.46745        12.71206        -0.98098
C         23.14641        14.84364        -0.45763
C         23.17873        16.29239        -0.38180
C         24.43194        14.10679        -0.38045
C         24.47019        16.89815        -0.19640
C         23.06047        19.30422        -1.18569
C         24.38231        18.97306        -0.84964
C         25.95080         1.95744         0.29782
C         25.94818         3.37499         0.29294
C         27.17394         1.29237         0.26497
C         27.13751         4.12185         0.19942
C         25.90435         6.29636         0.19802
C         25.86512         7.73386         0.16934
C         27.11429         5.57495         0.15484
C         27.06351         8.44236         0.11500
C         25.72950        10.63382        -0.06414
C         25.74835        12.00672        -0.56857
C         27.09818         9.91608         0.11509
C         26.95146        12.69420        -0.69252
C         25.72851        14.85206        -0.44847
C         25.69485        16.31945        -0.52997
C         26.95549        14.14098        -0.83639
C         26.86667        17.06292        -0.90167
C         25.60885        19.24732        -1.45826
C         26.81155        18.48249        -1.23652
C         28.39720         2.00707         0.20489
C         28.38461         3.43377         0.15614
C         29.64966         1.32159         0.13825
C         29.60949         4.15678         0.01226
C         28.36493         6.27113         0.10554
C         28.33579         7.72650         0.18871
C         29.59859         5.59599        -0.03803
C         29.63399         8.47632        -0.24188
C         28.27193        10.62400        -0.41699
C         28.21774        11.97839        -0.73478
C         29.44037         9.83030        -0.82472
C         29.40002        12.68070        -1.19707
C         28.08655        14.87636        -1.12441
C         28.07778        16.33533        -1.14870
C         29.30998        14.12480        -1.49605
C         29.29374        17.04283        -1.41604
C         28.01849        19.13450        -1.54413
C         29.25970        18.47205        -1.52881
C         30.82433         2.01872        -0.01065
C         30.82769         3.44329        -0.09486
C         32.04050         4.16987        -0.30362
C         30.82630         6.30249        -0.33164
C         30.81421         7.69627        -0.60236
C         32.03154         5.53299        -0.44781
C         31.95192         8.43550        -1.08172
C         30.68442        10.55375        -1.34912
C         30.62840        12.03189        -1.35577
C         31.93928         9.78352        -1.30685
C         31.84571        12.79925        -1.39856
C         30.61620        14.90889        -1.66445
C         30.56303        16.38996        -1.54355
C         31.85232        14.16078        -1.43320
C         31.72329        17.14425        -1.67387
C         30.46977        19.20875        -1.68711
C         31.68088        18.55562        -1.72641
O         19.51560        12.73272         2.11660
O          3.73165        10.07377         1.11568
O         20.23665         3.88638        -0.06435
O         29.70649         9.91222        -2.25451
O         20.49403        15.50276        -1.77030
O         29.84069        14.45045        -2.82275
O         24.34363         4.73087        -0.97702
O         23.18276         3.54302         2.30691
O          4.67826        16.92306         1.96637
O          7.72124        10.09031         2.19810
O         25.17179        14.31715         0.84827
O          3.81173        14.54159        -1.79425
O         13.05875        12.66407         0.16300
O         29.25974         8.34876         1.15345
O         17.34430         9.30591         3.08857
O          6.29604        14.40620         2.42700
O         26.41433        10.52353         1.24049
O          3.90887         2.71615        -0.23536
O         24.47701        18.18822         0.32191
O         11.54232        16.98664         2.85794
O          6.99492        18.03948         2.72389
O         14.82240        16.39152        -0.53774
O         23.05615        10.93006        -1.82276
O         18.49545         2.58847         2.80595
O          5.97449         4.31354        -2.74622
O         13.39595         2.33968         1.80150
O         15.02614        13.60720         2.99526
O          9.85200        13.67288        -0.29244
O         20.92993         9.83622        -1.01035
O         12.79450        14.67090         3.07726
O          9.39255         6.94016        -1.64675
H          9.36025         6.14317        -2.21922
O         24.53883        12.95350        -2.41157
H         24.18553        12.14889        -2.85735
O          7.91813         0.22348        -1.58932
H          7.72166         0.09224        -0.63921
O         14.69344         9.99420         3.48888
H         15.58973         9.71252         3.79818
O         18.49504         6.28242         3.38891
H         19.21603         6.86225         3.71531
O         10.04114        16.97265        -0.19937
H          9.48903        17.58345        -0.73121
O         24.54671         0.77598        -1.23952
H         24.51892         1.59190        -1.78158
O         10.56709         6.16924         2.54042
H         11.25782         6.56040         3.11727
O          1.50318        12.95813         0.57670
H          1.41791        12.05070         0.93879
O         22.62413         5.95222         2.80728
H         23.16400         5.19813         3.14716
H          0.80455         1.59102        -2.57391
H          0.61890         4.00224        -2.16678
H          2.94196         0.37748        -2.39342
H          0.63922         5.99478        -2.20667
H          0.59581         8.42529        -1.92480
H          1.13079        10.33337        -2.64457
H          1.01782        12.75038        -2.37310
H          0.51823        14.71782        -1.56521
H          0.79667        17.15486        -1.83271
H          2.09308        19.20571        -1.56610
H          5.49299         0.42493        -1.95128
H          3.99060        20.44938        -0.60152
H          8.16235         1.73851        -2.95319
H          6.18469        20.42152         0.51540
H         10.23129         0.58999        -1.16079
H          8.55297        20.42881         1.29044
H         12.47074         0.56983        -0.90630
H         10.93690        20.39319         1.07151
H         15.20359         0.54677        -0.39652
H         13.39450        20.40558         0.47846
H         17.29291         0.32914         0.60103
H         15.82882        20.29260        -0.00500
H         19.74708         0.16007         1.03296
H         18.20344        20.25361        -0.48014
H         22.17875         0.13513         0.60365
H         20.62859        20.20898        -1.01786
H         24.74644         0.20566         0.72697
H         22.85331        20.17025        -1.83218
H         27.19564         0.19273         0.24399
H         25.67276        20.07352        -2.18280
H         29.65737         0.22330         0.18827
H         27.99758        20.21206        -1.76512
H         31.78179         1.48235        -0.07986
H         32.98673         3.61440        -0.37549
H         32.98220         6.05124        -0.63213
H         32.90917         7.90574        -1.18842
H         32.88378        10.28691        -1.55565
H         32.80245        12.26723        -1.30277
H         32.79802        14.70252        -1.29279
H         32.69653        16.64429        -1.77274
H         30.41942        20.30402        -1.76673
H         32.61678        19.12019        -1.83696
