         600
 CSIRO Nanostructure Databank - Neutral Graphene Oxide Data Set
C         22.96183        27.33111         1.42669
C         22.96778        28.71875         1.44240
C         23.04057        31.59176         0.62611
C         23.16288        32.79149         0.04868
C         23.49457        35.58895        -1.17458
C         23.55952        36.88140        -1.54575
C         23.51396        39.87920        -1.92971
C         23.46368        41.23037        -1.99979
C         23.17921        44.22954        -1.90879
C         23.20577        45.58836        -2.20483
C         25.44463        24.51922         1.27202
C         24.23468        25.20046         1.45207
C         25.41057        27.36231         1.69791
C         24.17100        26.60257         1.51849
C         25.40903        28.81618         1.49436
C         24.16915        29.46935         1.42963
C         25.43884        31.65356         1.33152
C         24.09835        30.97751         1.52599
C         25.38009        33.15572         1.21577
C         24.44847        33.58176         0.04705
C         25.53433        35.85924         0.23163
C         24.21773        35.11043         0.06375
C         25.57532        37.19349        -0.13887
C         24.47968        37.80255        -0.89082
C         25.49736        39.99107        -0.42376
C         24.43344        39.17580        -1.05592
C         25.43430        41.48084        -0.45557
C         24.14532        42.12911        -0.98042
C         25.54925        44.25969        -1.29665
C         24.32470        43.55576        -1.45994
C         25.60835        45.65874        -1.68054
C         24.40909        46.32052        -2.09152
C         25.63027        48.41685        -2.29314
C         24.45366        47.71325        -2.38634
C         27.91807        23.14638         0.44415
C         27.88397        24.54152         0.69342
C         26.67717        25.18080         1.14927
C         27.93388        27.39136         1.14827
C         26.74956        26.59839         1.50224
C         27.88497        28.81917         1.27985
C         26.65707        29.51411         1.42233
C         27.90148        31.69208         1.33084
C         26.63658        30.96992         1.35320
C         27.92246        33.11058         1.26207
C         26.71280        33.83684         1.05496
C         27.97677        35.92392         0.76149
C         26.72576        35.19716         0.71379
C         28.00793        37.29464         0.44691
C         26.79425        37.96594         0.03540
C         28.05699        40.11416        -0.31746
C         26.79157        39.32116        -0.20576
C         27.90676        41.59703        -0.07601
C         26.71808        42.24646        -0.39694
C         27.92878        44.43433        -0.56045
C         26.69071        43.63543        -0.72497
C         28.10892        45.62234        -1.47918
C         26.82158        46.38731        -1.65549
C         28.10874        48.49852        -1.88359
C         26.85379        47.76555        -1.95173
C         28.17461        49.86639        -2.20550
C         30.27233        23.26131        -0.16128
C         29.08036        22.52162         0.04717
C         30.26667        24.64685         0.07285
C         29.08313        25.30043         0.50726
C         30.34110        27.46428         0.64442
C         29.09499        26.72981         0.72993
C         30.34430        28.86106         0.97529
C         29.12484        29.54950         1.19637
C         30.37346        31.67241         1.42310
C         29.12584        30.97120         1.32230
C         30.36395        33.09762         1.54787
C         29.16991        33.81895         1.35423
C         30.38039        35.99078         1.25325
C         29.18103        35.25465         1.16833
C         30.41516        37.38320         0.96873
C         29.21443        38.05894         0.58080
C         30.42980        40.19530         0.50765
C         29.23257        39.45679         0.35622
C         30.42814        41.62187         0.33752
C         29.10310        42.34761         0.47445
C         30.46489        44.45057        -0.24388
C         29.15455        43.80027         0.00714
C         30.47870        45.82642        -0.65263
C         29.30282        46.46851        -1.11001
C         30.52958        48.59566        -1.32139
C         29.31115        47.84490        -1.44081
C         30.54927        49.98519        -1.64237
C         29.35420        50.59007        -2.08780
C         32.71147        20.56371        -1.18588
C         31.50871        21.24320        -0.94141
C         32.75736        23.28598        -0.47490
C         31.50850        22.58185        -0.55281
C         32.77826        24.68306        -0.22128
C         31.48341        25.45412        -0.31980
C         32.79143        27.49538         0.41768
C         31.53854        26.81886         0.31220
C         32.82031        28.86627         0.78852
C         31.58821        29.56732         1.03287
C         32.88397        31.61281         1.60198
C         31.59019        30.94351         1.35728
C         32.91616        33.10138         1.85495
C         31.60349        33.82768         1.87323
C         32.90806        36.02752         1.53822
C         31.61503        35.32822         1.71198
C         32.86891        37.40319         1.32570
C         31.64281        38.10878         1.04184
C         32.88532        40.25434         0.77859
C         31.65452        39.50866         0.79581
C         32.88002        41.64905         0.49710
C         31.62786        42.33610         0.30893
C         32.90291        44.47210        -0.00599
C         31.64957        43.76797         0.03362
C         32.92242        45.87218        -0.27315
C         31.71355        46.55124        -0.60799
C         32.96581        48.66573        -0.85861
C         31.73414        47.93798        -0.92694
C         32.98416        50.06675        -1.14410
C         31.78300        50.73292        -1.52283
C         33.01394        52.83298        -1.67385
C         31.83410        52.12265        -1.78480
C         35.20157        19.02485        -0.73047
C         35.19997        20.42202        -1.30343
C         33.93843        21.19354        -1.01259
C         35.23302        23.26982        -0.56673
C         33.98301        22.57458        -0.67491
C         35.24107        24.65763        -0.25621
C         34.00350        25.37057        -0.10339
C         35.26108        27.46212         0.30161
C         34.02305        26.78565         0.18515
C         35.28860        28.86648         0.59047
C         34.07493        29.56635         0.83760
C         35.33008        31.67338         1.14578
C         34.12019        30.94984         1.16044
C         35.34336        33.12116         1.29432
C         34.15575        33.84373         1.53819
C         35.37718        35.95400         1.30968
C         34.14971        35.27679         1.51280
C         35.42657        37.41476         1.43366
C         34.10220        38.18686         1.43868
C         35.34523        40.27541         0.91855
C         34.11746        39.59404         1.02542
C         35.34387        41.68242         0.67025
C         34.11180        42.36846         0.48030
C         35.35296        44.50460         0.27056
C         34.12221        43.78590         0.24677
C         35.37141        45.91448         0.05844
C         34.15657        46.59439        -0.23597
C         35.40415        48.72041        -0.43441
C         34.17120        47.99681        -0.50595
C         35.42269        50.12038        -0.69443
C         34.21242        50.79566        -1.05025
C         35.46506        52.92740        -1.21429
C         34.22410        52.19767        -1.30409
C         35.46954        54.37185        -1.24746
C         37.64752        19.00053        -0.80226
C         36.36272        18.35664        -0.56890
C         37.66690        20.40896        -0.91641
C         36.46683        21.15583        -0.93849
C         37.72367        23.24776        -0.53474
C         36.46900        22.55337        -0.72465
C         37.72496        24.64275        -0.23834
C         36.48662        25.35525        -0.11653
C         37.74461        27.44433         0.27853
C         36.49755        26.74841         0.14822
C         37.76039        28.84980         0.51404
C         36.52942        29.56604         0.66820
C         37.79891        31.67441         0.87590
C         36.54932        30.96990         0.89894
C         37.80006        33.10940         0.90993
C         36.57501        33.82373         1.07407
C         37.80830        35.96007         0.78695
C         36.58457        35.24960         1.06197
C         37.81352        37.41500         0.74065
C         36.62843        38.14203         1.01773
C         37.81803        40.26566         0.75498
C         36.59880        39.55247         0.93107
C         37.82089        41.69400         0.70492
C         36.58148        42.39903         0.63043
C         37.81677        44.53119         0.53459
C         36.58514        43.81090         0.47615
C         37.82570        45.95475         0.42329
C         36.60690        46.63896         0.13349
C         37.84413        48.77302         0.00894
C         36.61608        48.04359        -0.10207
C         37.86626        50.18073        -0.26445
C         36.65719        50.84186        -0.63196
C         37.94344        52.94465        -1.03616
C         36.65856        52.23695        -0.94952
C         37.92503        54.47930        -1.15648
C         36.60275        55.10918        -1.11822
C         40.05362        16.11982        -0.68900
C         38.87596        16.83598        -0.75476
C         40.13268        18.95645        -0.71606
C         38.86861        18.25647        -0.77284
C         40.18251        20.35763        -0.76414
C         38.96101        21.13652        -1.15661
C         40.18101        23.21742        -0.44727
C         38.95035        22.55425        -0.64726
C         40.19553        24.61409        -0.17859
C         38.96476        25.32859        -0.08544
C         40.21677        27.42450         0.33984
C         38.97461        26.73654         0.16598
C         40.21763        28.80852         0.59784
C         39.00379        29.53435         0.64298
C         40.26496        31.68482         0.72103
C         39.01521        30.96811         0.77425
C         40.26549        33.10621         0.64740
C         39.02006        33.81693         0.73206
C         40.24078        35.91622         0.19042
C         38.99778        35.23677         0.60539
C         40.23776        37.43824         0.14524
C         39.00524        38.13677         0.51364
C         40.28550        40.25788         0.54627
C         39.03950        39.54915         0.61186
C         40.29060        41.66477         0.67862
C         39.05253        42.39834         0.70424
C         40.25505        44.56180         0.88389
C         39.04613        43.82998         0.69727
C         40.27854        45.97336         0.87892
C         39.04484        46.68727         0.59643
C         40.21664        48.88957         0.74297
C         39.02134        48.09256         0.42525
C         40.29298        50.28539         0.28586
C         39.10368        50.92277        -0.16479
C         40.33508        53.05385        -0.32079
C         39.15119        52.30249        -0.49692
C         40.32809        54.49961        -0.45140
C         39.14165        55.21434        -0.74693
C         40.29936        57.33688        -0.46704
C         39.14087        56.62615        -0.72282
C         42.52519        16.05133        -0.56521
C         41.31172        16.78049        -0.60800
C         42.60087        18.87867        -0.50091
C         41.35429        18.20865        -0.58934
C         42.63395        20.32078        -0.46610
C         41.41277        21.05255        -0.59212
C         42.65494        23.16010        -0.33770
C         41.42533        22.47776        -0.48602
C         42.67509        24.58295        -0.15479
C         41.44540        25.30677        -0.03283
C         42.71101        27.39458         0.30549
C         41.46091        26.69812         0.22665
C         42.74270        28.79726         0.54359
C         41.49167        29.49972         1.00320
C         42.71876        31.67077         0.63897
C         41.49273        30.97932         0.70949
C         42.74229        33.10088         0.56665
C         41.50996        33.80958         0.54858
C         42.74437        35.91994         0.24030
C         41.53364        35.22408         0.36101
C         42.73543        37.38169        -0.01700
C         41.51156        38.15559         0.22092
C         42.78281        40.26433         0.49295
C         41.53090        39.53867         0.41082
C         42.76138        41.68406         0.73240
C         41.53105        42.35971         0.81101
C         42.80373        44.55409         1.17373
C         41.48292        43.79309         1.14288
C         42.76679        46.01528         1.01397
C         41.53523        46.68001         0.99758
C         42.77351        48.90054         0.84867
C         41.52369        48.16003         1.04540
C         42.76399        50.27932         0.62513
C         41.51913        50.98168         0.33691
C         42.76155        53.11707         0.17738
C         41.54012        52.38443         0.06108
C         42.75854        54.54104         0.05452
C         41.52842        55.22927        -0.19859
C         42.72841        57.37320        -0.01773
C         41.51506        56.65408        -0.22811
C         43.74255        16.70776        -0.53543
C         45.08375        18.81170        -0.51246
C         43.81632        18.12263        -0.50279
C         45.12858        20.25252        -0.05922
C         43.85861        21.01529        -0.33729
C         45.14128        23.13487        -0.29504
C         43.88472        22.42398        -0.32358
C         45.15148        24.54283        -0.19504
C         43.91554        25.26706        -0.07443
C         45.17681        27.38124         0.15265
C         43.93324        26.68142         0.11404
C         45.19211        28.78868         0.35848
C         43.95581        29.50095         0.54087
C         45.16992        31.65879         0.70166
C         43.96270        30.94842         0.64186
C         45.21034        33.08475         0.65069
C         43.98462        33.81201         0.52835
C         45.24475        35.95172         0.42469
C         43.99379        35.23670         0.38360
C         45.28418        37.38501         0.39786
C         44.05649        38.14381         0.10408
C         45.24765        40.27035         0.59364
C         44.00895        39.58115         0.41944
C         45.24965        41.69631         0.69956
C         44.01597        42.40752         0.79156
C         45.25736        44.54298         0.80003
C         44.03922        43.81714         0.88671
C         45.23161        46.00178         0.86456
C         44.02988        46.69927         0.95783
C         45.28634        48.88478         0.72521
C         44.04873        48.18644         1.21690
C         45.26326        50.30664         0.65317
C         44.00537        51.01596         0.59926
C         45.20439        53.18257         0.49706
C         43.98922        52.42948         0.43051
C         45.21261        54.57748         0.33984
C         43.96656        55.28189         0.18399
C         43.91562        56.70681         0.16132
C         47.49367        18.88106        -0.92344
C         46.27264        18.17440        -0.82929
C         47.55097        20.26724        -0.78502
C         46.37056        20.99880        -0.49121
C         47.61678        23.13653        -0.55920
C         46.37036        22.40741        -0.45696
C         47.62005        24.56306        -0.38136
C         46.39817        25.26084        -0.19164
C         47.64674        27.38915         0.00749
C         46.40950        26.67589        -0.01077
C         47.65799        28.79728         0.27488
C         46.43243        29.46932         0.47175
C         47.73191        31.64004         0.86795
C         46.41581        30.88711         0.85966
C         47.70037        33.10098         0.70458
C         46.46294        33.79495         0.65311
C         47.71501        35.93058         0.59456
C         46.46621        35.22661         0.56350
C         47.72771        37.36862         0.60795
C         46.48137        38.10045         0.57175
C         47.69544        40.27892         0.73489
C         46.47622        39.54941         0.61808
C         47.72655        41.68608         0.71795
C         46.48468        42.41503         0.71785
C         47.76775        44.58270         0.91933
C         46.47422        43.83220         0.73361
C         47.66491        46.02456         0.49467
C         46.49130        46.72050         0.67724
C         47.71893        48.89557         0.43301
C         46.48549        48.18020         0.58419
C         47.72458        50.31988         0.50528
C         46.49208        51.00878         0.61196
C         47.78075        53.23712         0.63051
C         46.46464        52.47207         0.75919
C         47.67234        54.63794         0.20762
C         46.47183        55.26991         0.17045
C         50.08153        20.30994        -0.67223
C         48.82582        20.99582        -1.15016
C         50.06628        23.15330        -0.74687
C         48.82241        22.45346        -0.75804
C         50.07379        24.57917        -0.64624
C         48.85211        25.28191        -0.43576
C         50.10739        27.41225        -0.26696
C         48.86778        26.69684        -0.23494
C         50.13155        28.81189        -0.00073
C         48.91367        29.51498         0.28494
C         50.17238        31.64382         0.44794
C         48.95297        30.90920         0.50002
C         50.16303        33.04733         0.64430
C         48.94300        33.78158         0.66292
C         50.18556        35.93366         0.61575
C         48.94340        35.22369         0.64369
C         50.19194        37.36034         0.55057
C         48.94797        38.05823         0.61380
C         50.24326        40.26206         0.66123
C         48.95290        39.51907         0.82702
C         50.20476        41.71778         0.43833
C         48.98435        42.41608         0.57383
C         50.18567        44.50150         0.12384
C         48.99206        43.83022         0.44868
C         50.16682        45.96724        -0.15324
C         48.87773        46.73344         0.04399
C         50.17368        48.86475         0.15922
C         48.94393        48.19245         0.23204
C         50.19564        50.30172         0.22834
C         48.97869        51.03224         0.38478
C         50.23291        53.11384         0.18290
C         49.01414        52.45346         0.37769
C         51.24348        20.99569        -0.57654
C         52.52803        23.14177        -0.88443
C         51.29626        22.43221        -0.76036
C         52.49965        24.56390        -0.99132
C         51.30547        25.29114        -0.77814
C         52.53330        27.44600        -0.64485
C         51.31901        26.72500        -0.59847
C         52.58593        28.82214        -0.29962
C         51.37202        29.52509        -0.01313
C         52.63766        31.63628         0.09902
C         51.40325        30.93098         0.20659
C         52.67549        33.06495         0.35288
C         51.46020        33.75131         0.94905
C         52.62457        35.94857         0.61770
C         51.42615        35.23805         0.65298
C         52.64726        37.37246         0.48660
C         51.43139        38.06179         0.44048
C         52.69970        40.26391         0.24954
C         51.40460        39.51834         0.04916
C         52.69236        41.65787         0.21030
C         51.42428        42.39242         0.20571
C         52.67844        44.49339        -0.25597
C         51.40370        43.78934         0.02006
C         52.68686        46.01120        -0.27465
C         51.42037        46.74052        -0.08803
C         52.68394        48.84523         0.05642
C         51.41927        48.12397         0.02582
C         52.68689        50.25483         0.09371
C         51.43386        50.99815         0.11765
C         51.42252        52.40179         0.06716
C         54.98545        23.16529        -1.09964
C         53.79172        22.47699        -0.94766
C         55.02143        24.56330        -1.28995
C         53.73994        25.26845        -1.32875
C         55.05286        27.45863        -0.92245
C         53.75455        26.80919        -1.14286
C         55.07655        28.82237        -0.56443
C         53.83279        29.52289        -0.33310
C         55.08946        31.65359        -0.41141
C         53.83121        30.92674        -0.17039
C         55.08934        33.15083        -0.21871
C         53.84981        33.76822         0.28009
C         55.18853        35.93753         0.54879
C         53.89703        35.19339         0.67985
C         55.14083        37.40539         0.39335
C         53.91799        38.09760         0.40479
C         55.15703        40.23756         0.36728
C         53.92182        39.52860         0.32409
C         55.17163        41.68371         0.29500
C         53.93826        42.38925         0.20773
C         55.16169        44.52913         0.08593
C         53.95033        43.80108         0.03950
C         55.15841        45.98355         0.07634
C         53.95611        46.70670        -0.01163
C         55.15992        48.84280         0.19274
C         53.92952        48.13149         0.08405
C         55.12351        50.26047         0.21390
C         53.92834        50.94074         0.15535
C         57.47093        24.66246        -1.68981
C         56.24002        25.31225        -1.41341
C         57.50405        27.41286        -1.05853
C         56.25076        26.73100        -1.16980
C         57.53832        28.77299        -0.62695
C         56.34269        29.50255        -0.44202
C         57.57016        31.66251        -0.29631
C         56.37756        30.93569        -0.31685
C         57.59396        33.11383        -0.31452
C         56.38630        33.84821        -0.09128
C         57.62974        35.95612        -0.04898
C         56.41870        35.22327         0.13001
C         57.62889        37.38168         0.05392
C         56.37482        38.10220         0.30103
C         57.68199        40.19083         0.59724
C         56.36283        39.50264         0.40022
C         57.67563        41.66861         0.22558
C         56.39654        42.40778         0.23378
C         57.64873        44.55431         0.35790
C         56.40088        43.81875         0.20543
C         57.62533        45.98138         0.40104
C         56.39445        46.69883         0.24860
C         57.64142        48.80628         0.45620
C         56.39997        48.11741         0.28758
C         58.66964        25.35572        -1.69966
C         59.97495        27.41815        -1.25829
C         58.71717        26.72226        -1.34908
C         60.04906        28.68344        -0.76903
C         58.83772        29.39432        -0.34790
C         60.07852        31.72071        -0.42548
C         58.85490        30.96008        -0.16210
C         60.04062        33.06716        -0.59496
C         58.81516        33.81756        -0.44666
C         59.98588        36.01808        -0.71251
C         58.82478        35.25551        -0.40676
C         59.96058        37.39919        -0.68690
C         58.79406        38.09717        -0.29309
C         59.27064        40.46775        -1.13339
C         58.71611        39.55450        -0.29824
C         58.72154        41.82306        -0.89312
C         58.96764        42.41725         0.49656
C         60.05422        44.61463         0.85246
C         58.87440        43.89055         0.57853
C         60.04503        45.99627         0.85570
C         58.83794        46.69809         0.62164
C         58.81734        48.12416         0.62641
O         42.14208        44.11025         2.41423
O         38.14947        53.62240        -2.32312
O         49.31497        46.30396        -1.31008
O         58.93586        30.03494         0.96372
O         40.11056        36.62524        -1.08865
O         40.68244        48.70380         2.12751
O         34.84256        37.92730         2.67631
O         43.48209        37.79855        -1.20852
O         54.70191        35.47492         1.88490
O         25.14531        40.77406         0.80931
O         49.82093        39.86948         1.99250
O         26.22441        26.92081         2.82660
O         54.96874        32.56182        -1.57136
O         47.19084        52.96097         1.94514
O         53.60738        26.19469        -2.46030
O         28.28979        44.67326         0.84344
O         33.02915        32.16377         2.97274
O         31.46689        34.70238         3.04337
O         47.11449        31.16476         2.12537
O         52.69654        45.22022        -1.53161
O         24.80365        33.66731         2.47379
H         25.49881        33.59097         3.16245
O         45.21258        20.17890         1.42161
H         46.02267        19.66920         1.63713
O         23.34146        35.45494         1.16348
H         23.73931        35.08398         1.98574
O         39.04879        21.26362        -2.63704
H         38.27383        21.79415        -2.92321
O         51.61845        33.64849         2.40696
H         52.42506        34.15103         2.65414
O         47.96722        44.65777         2.38709
H         47.13354        44.99366         2.78236
O         31.31436        25.72188        -1.76895
H         31.30233        24.85129        -2.22193
O         58.07507        40.00550         1.98883
H         57.32667        40.28377         2.55726
O         44.12102        48.28523         2.69256
H         43.93995        49.21795         2.93747
O         25.14227        33.29338        -1.18830
H         25.25112        32.32206        -1.25939
O         48.87724        20.96852        -2.62416
H         49.67751        21.46793        -2.89368
O         51.13250        39.53891        -1.39429
H         51.91036        39.15864        -1.85415
O         23.64713        31.24644         2.89168
H         23.69614        32.22535         3.01085
O         41.51801        29.40036         2.48158
H         42.35357        29.81505         2.78641
O         59.95873        41.85821         1.31023
H         59.63568        40.99189         1.65307
O         28.41792        45.03642        -2.79231
H         28.49201        45.77191        -3.43657
O         28.86636        42.36882         1.91905
H         28.33420        43.18055         2.09839
O         23.19868        42.22929         0.11932
H         23.47746        41.55119         0.78292
O         35.23669        20.26350        -2.76944
H         36.03624        19.73458        -2.97974
O         28.39421        40.05307        -1.77632
H         28.57177        39.11197        -1.99270
H         22.00895        26.78558         1.36733
H         22.00646        29.25007         1.43773
H         22.07548        31.06593         0.55893
H         22.31684        33.20337        -0.52402
H         22.81596        34.89724        -1.69485
H         22.94566        37.24994        -2.38106
H         22.87368        39.28384        -2.59845
H         22.76226        41.70021        -2.70586
H         22.23016        43.68076        -1.98027
H         22.28796        46.10439        -2.52084
H         25.39491        23.43249         1.11844
H         23.29594        24.62797         1.43044
H         25.62065        49.49294        -2.50966
H         23.52635        48.22410        -2.68323
H         27.01487        22.54007         0.59085
H         27.27966        50.39479        -2.55883
H         29.07115        21.43436        -0.10338
H         29.33801        51.65423        -2.35641
H         32.67304        19.51476        -1.50977
H         30.56534        20.69451        -1.06073
H         33.00067        53.90724        -1.89902
H         30.92568        52.66311        -2.08106
H         34.24425        18.52067        -0.53335
H         34.50609        54.89926        -1.25327
H         36.34422        17.31770        -0.21004
H         36.52343        56.19542        -0.97285
H         40.02993        15.02049        -0.70131
H         37.92649        16.28739        -0.82049
H         40.28950        58.43593        -0.47846
H         38.21688        57.17603        -0.94623
H         42.49182        14.95229        -0.57305
H         42.70286        58.47234        -0.01796
H         44.66589        16.11295        -0.51186
H         44.83384        57.28888         0.31461
H         48.39382        18.32237        -1.21312
H         46.27728        17.10588        -1.08691
H         48.57628        55.18311        -0.09812
H         46.45128        56.32784        -0.12448
H         50.07705        19.22242        -0.51008
H         50.27066        54.21112         0.16688
H         52.16664        20.45890        -0.31436
H         52.35468        52.96773        -0.05214
H         55.92558        22.59625        -1.08074
H         53.82966        21.38438        -0.84531
H         56.05246        50.84051         0.28076
H         53.95318        52.03725         0.18482
H         57.47396        23.59009        -1.92802
H         57.66170        49.90340         0.47305
H         59.60530        24.83139        -1.94145
H         60.89161        26.88006        -1.54112
H         61.02649        29.16352        -0.62501
H         61.04320        31.19523        -0.43037
H         60.98371        33.60424        -0.76315
H         60.91445        35.51303        -1.00986
H         60.85963        37.96977        -0.95890
H         60.00679        40.25382        -1.91887
H         58.55183        42.50968        -1.73747
H         60.98098        44.05778         1.04440
H         60.96919        46.56170         1.04209
H         59.75957        48.66992         0.77862
