         344
 CSIRO Nanostructure Databank - Neutral Graphene Oxide Data Set
C          1.29703         2.26340         0.66599
C          1.15253         3.34997        -0.15690
C          2.55729         1.68159         0.92182
C          2.30676         4.08503        -0.77572
C          1.09011         6.31848        -0.01918
C          1.08307         7.66463         0.14396
C          2.38512         5.53965        -0.11628
C          2.29253         8.47981         0.10694
C          1.15050        10.64888         0.67178
C          1.18716        12.00833         0.87063
C          2.31269         9.88906         0.28019
C          2.34533        12.80283         0.59417
C          1.19477        14.98279         1.03109
C          1.23221        16.31739         1.23425
C          2.38170        14.19810         0.69961
C          2.55196        17.03757         1.28941
C          2.49597        18.53672         1.06722
C          3.72501         2.19559         0.30222
C          3.64094         3.35093        -0.54791
C          4.97114         1.54614         0.42132
C          4.81641         3.80104        -1.14229
C          3.44151         6.44578        -0.72065
C          3.49069         7.82475        -0.30569
C          4.49366         6.02880        -1.51053
C          4.72033         8.54605        -0.35602
C          3.54204        10.61043         0.12342
C          3.49076        12.10209        -0.09848
C          4.74252         9.94261        -0.07957
C          4.82469        12.81410        -0.00369
C          3.60582        14.90965         0.39851
C          3.54964        16.42072         0.30761
C          4.77621        14.24473         0.06227
C          4.87605        17.11910         0.47505
C          3.62753        19.20716         0.77530
C          4.90427        18.49451         0.61879
C          6.16754         2.09871        -0.09639
C          6.14332         3.35105        -0.81794
C          7.39166         1.40829         0.09440
C          7.41127         4.06434        -0.96502
C          5.70292         6.74983        -1.56512
C          5.90400         7.89388        -0.83312
C          7.58201         5.45320        -1.32017
C          7.24529         8.46013        -0.53277
C          6.07191        10.65446         0.06621
C          6.02805        12.14030        -0.20287
C          7.23107         9.95605        -0.62822
C          7.28211        12.83864        -0.35444
C          5.99769        15.04489        -0.33261
C          6.13400        16.31258         0.50543
C          7.29350        14.26482        -0.31682
C          7.36664        17.10797         0.14270
C          6.15044        19.19622         0.60339
C          7.36360        18.53287         0.33792
C          8.62288         2.03366        -0.16180
C          8.61144         3.43369        -0.51549
C          9.85666         1.34970        -0.01857
C          9.84154         4.15902        -0.42689
C          8.64374         6.24248        -0.86394
C          8.54739         7.72150        -0.63242
C          9.84140         5.58576        -0.47583
C          9.81462         8.51197        -0.64414
C          8.52662        10.67147        -0.71579
C          8.52638        12.12799        -0.45956
C          9.80389         9.91259        -0.66461
C          9.75051        12.79589        -0.52633
C          8.48712        14.98521        -0.37824
C          8.52865        16.42093        -0.20914
C          9.73336        14.25936        -0.66020
C          9.80343        17.12122        -0.18849
C          8.59835        19.23941         0.22203
C          9.80548        18.56871         0.01610
C         11.08686         2.03030        -0.12511
C         11.07172         3.46459        -0.23941
C         12.33715         1.36260        -0.08000
C         12.28542         4.19440        -0.17410
C         11.04680         6.33214        -0.26329
C         11.05128         7.79101        -0.38506
C         12.24810         5.62017        -0.12103
C         12.23620         8.49867        -0.26634
C         11.01176        10.67719        -0.56223
C         11.00047        12.08072        -0.52763
C         12.33799         9.95836        -0.63529
C         12.26020        12.82492        -0.39928
C         11.04618        15.01624        -0.62249
C         11.00081        16.43821        -0.26385
C         12.28314        14.23772        -0.40409
C         12.27186        17.11299         0.17258
C         11.04289        19.27055        -0.07700
C         12.27083        18.59667        -0.11714
C         13.54574         2.07609        -0.14322
C         13.53991         3.50470        -0.14964
C         14.80981         1.39926        -0.21879
C         14.77850         4.22543        -0.18881
C         13.50392         6.32230         0.16697
C         13.48165         7.84126         0.13733
C         14.78557         5.63748        -0.06193
C         14.76915         8.54582        -0.02219
C         13.42929        10.65669         0.18994
C         13.47359        12.13303        -0.13337
C         14.76351         9.95023         0.01551
C         14.68698        12.82677        -0.03736
C         13.50873        14.94635        -0.30245
C         13.52724        16.39428        -0.25643
C         14.71883        14.22074        -0.21970
C         14.73209        17.09841        -0.29147
C         13.49982        19.26043        -0.24213
C         14.73676        18.55879        -0.27803
C         15.99424         2.08492        -0.33688
C         16.02273         3.52703        -0.31488
C         17.26531         1.30374        -0.54346
C         17.24074         4.24944        -0.36278
C         15.99144         6.37174        -0.11285
C         15.98600         7.81716        -0.05260
C         17.23375         5.67750        -0.27548
C         17.21812         8.52971        -0.02170
C         15.97651        10.65035         0.10908
C         15.91268        12.11075         0.48746
C         17.20800         9.95217         0.10977
C         17.21896        12.84115         0.29679
C         16.01765        14.91012        -0.52087
C         15.98647        16.40515        -0.33941
C         17.23428        14.24644         0.07818
C         17.18918        17.10375        -0.33664
C         15.95570        19.24179        -0.37178
C         17.19947        18.55245        -0.39881
C         18.52264         2.09801        -0.29611
C         18.51201         3.52917        -0.34552
C         19.71030         1.40684        -0.14756
C         19.72510         4.23186        -0.31122
C         18.45545         6.42248        -0.28770
C         18.46020         7.81012        -0.10020
C         19.72128         5.70281        -0.70403
C         19.71236         8.53877         0.10872
C         18.45088        10.67549         0.28806
C         18.41410        12.10538         0.40798
C         19.68380         9.98031         0.33641
C         19.67460        12.82178         0.62425
C         18.41892        14.99067         0.09046
C         18.44122        16.39213        -0.22189
C         19.67367        14.35288         0.49715
C         19.65964        17.09446        -0.27335
C         18.42330        19.22501        -0.49891
C         19.66501        18.52584        -0.47357
C         20.94541         2.09565        -0.03520
C         20.95113         3.52099        -0.13455
C         22.17081         1.39624         0.13033
C         22.19872         4.19276        -0.00956
C         20.99750         6.44877        -0.30305
C         20.91191         7.85664         0.13549
C         22.24477         5.67556        -0.01504
C         22.13406         8.51886         0.74020
C         20.92761        10.69514         0.42481
C         20.95152        12.11881         0.44035
C         22.17553         9.99388         0.43531
C         22.15441        12.83931         0.34402
C         20.93987        15.02305         0.18511
C         20.91501        16.39512        -0.14758
C         22.16363        14.29393         0.21929
C         22.14111        17.10674        -0.28850
C         20.88730        19.20521        -0.59386
C         22.13205        18.52249        -0.50956
C         23.38379         2.06424         0.19835
C         23.39636         3.48778         0.14227
C         24.67057         1.29317         0.38923
C         24.66465         4.21843         0.24359
C         23.38816         6.29501         0.76754
C         23.43765         7.78774         0.53283
C         24.67525         5.56710         0.45924
C         24.65150         8.46065         0.46687
C         23.37755        10.67452         0.34504
C         23.39858        12.11495         0.27395
C         24.65106         9.91681         0.03825
C         24.61681        12.80557         0.18190
C         23.36823        14.99481         0.02151
C         23.37687        16.41022        -0.15863
C         24.66833        14.26529        -0.16081
C         24.60317        17.15009        -0.18681
C         23.36608        19.20920        -0.57779
C         24.58492        18.53921        -0.38318
C         25.91999         2.10758         0.16367
C         25.91542         3.46434         0.12074
C         27.17871         1.28638         0.00500
C         27.16303         4.24572        -0.24421
C         25.93793         6.29064         0.82416
C         25.88646         7.76542         0.54211
C         27.20389         5.65090         0.30944
C         27.14852         8.46766         0.74202
C         25.89676        10.69400         0.34832
C         25.88089        12.10764         0.22539
C         27.14966        10.02214         0.65130
C         27.08973        12.82054         0.26206
C         25.83553        15.00849         0.48098
C         25.85345        16.48378         0.25761
C         27.14642        14.25381         0.69660
C         27.14344        17.17607         0.04482
C         25.84979        19.36110        -0.26508
C         27.13115        18.55480        -0.27476
C         28.44953         2.09598         0.06969
C         28.43979         3.48673         0.03220
C         29.68049         1.39860         0.18945
C         29.66341         4.21298         0.12238
C         28.39688         6.35051         0.29901
C         28.42968         7.78520         0.51890
C         29.66434         5.64526         0.15466
C         29.62249         8.51383         0.41508
C         28.41303        10.67455         0.33613
C         28.36217        12.12119        -0.11970
C         29.61799         9.97479         0.33173
C         29.61118        12.83173         0.44797
C         28.38781        14.99241         0.21843
C         28.36154        16.44376        -0.00865
C         29.57550        14.32633         0.24890
C         29.56251        17.09851        -0.35106
C         28.32949        19.20960        -0.54526
C         29.56270        18.50551        -0.57220
C         30.87753         2.08173         0.24155
C         30.89418         3.50172         0.21076
C         32.11162         4.23735         0.27479
C         30.87944         6.34818         0.22279
C         30.87549         7.80934         0.24358
C         32.10159         5.61274         0.26652
C         32.04394         8.53631         0.06403
C         30.87281        10.67733         0.12251
C         30.88829        12.18434        -0.11276
C         32.03804         9.95165         0.00507
C         32.10505        12.93173         0.38619
C         30.85549        15.12313         0.43802
C         30.83964        16.29721        -0.55985
C         32.10032        14.26908         0.48013
C         32.07708        17.14619        -0.53947
C         30.78947        19.19335        -0.78443
C         32.02079        18.50714        -0.70960
O          4.61663         4.78243        -2.14184
O         25.56742        15.87065         1.61823
O          6.72297         6.07794        -2.23363
O          7.65139        10.42035        -1.93042
O          7.84132         7.94321         0.69417
O         13.42562         7.10588         1.41033
O         27.13849         9.31645         1.95512
O         10.39666        14.71668        -1.91027
O         19.64671        13.69628         1.80676
O         22.06134         6.27551        -1.33886
O         13.07598        10.55471         1.59002
H         13.78602        11.01212         2.09707
O         12.79226        10.02861        -2.02467
H         12.05368         9.74046        -2.60122
O         16.19373        14.71026        -1.98255
H         15.43516        15.14461        -2.42853
O         25.78618        20.12494         0.95833
H         25.72772        19.49270         1.70433
O         30.77033        15.71906         1.76070
H         30.64288        14.98867         2.40316
O         30.77008        15.68891        -1.88858
H         30.72619        16.41503        -2.54539
O         27.33667        14.15931         2.15780
H         26.82273        14.91514         2.54242
O          2.01420         4.23374        -2.17398
H          2.85484         4.45913        -2.63646
O          2.82434         5.27371         1.24692
H          2.85944         6.12929         1.72454
O          5.76771        15.48335        -1.71180
H          5.92685        14.71596        -2.30182
O          3.14658        12.21362        -1.54013
H          2.92417        13.15438        -1.71094
O         28.31794        12.11582        -1.57687
H         29.24616        12.13944        -1.91964
O         23.13451         6.05637         2.19810
H         24.01781         6.12148         2.64074
O         25.98760         6.18608         2.31949
H         26.60758         6.88033         2.63780
O         12.27724        17.00420         1.64952
H         13.07208        17.48176         1.97055
O         24.69012         9.82416        -1.44401
H         24.78422        10.73600        -1.79522
O         29.64080        12.59405         1.87712
H         28.83954        13.02934         2.26316
O         24.99042        14.33751        -1.60277
H         24.26645        13.89400        -2.09331
O          3.10406        16.82072         2.62372
H          2.45257        17.15217         3.27595
O         24.71942         0.16310        -0.48757
H         23.99274        -0.44763        -0.25283
O         17.25714         0.09735         0.23156
H         17.20076         0.34370         1.17735
O         21.89188         8.46462         2.19778
H         22.16573         7.55950         2.49897
O         27.22502         0.25542         1.00826
H         27.38705         0.68267         1.87401
O          3.10081        16.71713        -1.04817
H          3.84452        16.46850        -1.64535
O         27.10210         4.42114        -1.70655
H         27.04668         3.52895        -2.10948
O         30.91716        12.36845        -1.56450
H         31.74279        11.96432        -1.90395
O          6.41120        10.53693         1.48720
H          5.71417        10.98837         2.00795
O         15.68225        12.09279         1.95454
H         16.52051        11.80888         2.38006
O         19.67408         5.69929        -2.16382
H         20.61269         5.72237        -2.46801
O          6.31421        15.86550         1.88963
H          6.11467        16.62295         2.47939
H          0.40215         1.79861         1.10621
H          0.14268         3.71367        -0.39584
H          2.63225         0.79038         1.56031
H          0.13611         5.77248         0.02184
H          0.11705         8.17336         0.28147
H          0.21227        10.11412         0.87644
H          0.28159        12.50133         1.25293
H          0.22545        14.46438         1.06938
H          0.30575        16.87132         1.45399
H          1.54671        19.07279         1.22331
H          5.03184         0.60793         0.99217
H          3.62635        20.30341         0.67662
H          7.37245         0.38872         0.50625
H          6.15162        20.28783         0.73911
H          9.84875         0.26786         0.18028
H          8.59968        20.33306         0.34409
H         12.35978         0.26396        -0.02838
H         11.02800        20.37064        -0.11923
H         14.82541         0.29919        -0.21988
H         13.51193        20.35760        -0.33247
H         17.29036         0.97585        -1.62265
H         15.95450        20.34165        -0.40798
H         19.69532         0.30734        -0.12509
H         18.43244        20.32177        -0.58845
H         22.14039         0.29741         0.19717
H         20.88584        20.29594        -0.73880
H         24.69383         0.91420         1.46103
H         23.36892        20.30061        -0.71365
H         27.12616         0.75406        -0.98405
H         25.88539        20.11212        -1.09693
H         29.66172         0.30045         0.23018
H         28.32579        20.29188        -0.74136
H         31.82851         1.53442         0.31363
H         33.06429         3.69167         0.33630
H         33.05857         6.14769         0.33146
H         33.00458         8.02411        -0.07755
H         32.99559        10.46571        -0.16533
H         33.04662        12.38194         0.54393
H         33.02452        14.78614         0.78546
H         33.05220        16.63808        -0.51571
H         30.77583        20.28019        -0.94558
H         32.95461        19.08438        -0.78282
