         276
 CSIRO Nanostructure Databank - Neutral Graphene Oxide Data Set
C        -11.19897         0.62771         0.45519
C        -10.00590         1.48667         0.79937
C         -8.70371         0.74979         0.51418
C         -7.44538         1.52839         0.73498
C         -6.12269         0.80430         0.62264
C         -4.87637         1.64129         0.80419
C         -3.54542         0.90614         0.83476
C         -2.26943         1.64337         0.34031
C         -1.25492         0.73404        -0.38307
C         -0.12767         1.36022        -1.14663
C          1.17180         0.61746        -1.48460
C          2.45377         1.32327        -1.04426
C          3.66318         0.68971        -1.10399
C          4.91752         1.44539        -0.89660
C          6.25258         0.78613        -1.19544
C          7.32958         1.43770        -0.29416
C          8.60926         0.62942        -0.13289
C          9.77216         1.38405         0.52338
C         10.67920         0.61200         1.40515
C         -9.98504         2.86277         0.15748
C         -8.84333         3.57478         0.02865
C         -7.52770         2.98620         0.42111
C         -6.28866         3.61584        -0.18832
C         -4.96594         3.08990         0.41444
C         -3.66745         3.85553         0.10092
C         -2.57144         2.92613        -0.43663
C         -1.40087         3.59793        -1.06552
C         -0.09569         2.86162        -1.22537
C          1.19558         3.54545        -0.94431
C          2.42396         2.74435        -0.51419
C          3.65106         3.57421        -0.96220
C          4.95675         2.81725        -0.81930
C          6.22365         3.62460        -1.19803
C          7.63404         2.86825        -0.87590
C          8.56228         3.55815         0.16037
C          9.52985         2.79245         0.80059
C         -8.86631         4.99103        -0.52803
C         -7.59828         5.79653        -0.26646
C         -6.36505         5.12085        -0.15618
C         -5.14467         5.84515        -0.54784
C         -3.86669         5.11016        -0.77276
C         -2.61073         5.90859        -1.02865
C         -1.34650         5.10957        -1.08111
C         -0.13824         5.70998        -0.42786
C          1.14336         4.93379        -0.36435
C          2.39733         5.63545        -0.07148
C          3.65558         4.88973        -0.18037
C          4.95033         5.61676        -0.01576
C          6.19630         5.17993        -0.78963
C          7.38300         5.74283         0.01117
C          8.49708         4.93936         0.36859
C         -7.64720         7.19547        -0.33302
C         -6.45917         8.00911        -0.04415
C         -5.09927         7.29199        -0.22053
C         -3.89083         8.08644        -0.42670
C         -2.58907         7.44497        -0.84252
C         -1.46881         7.92974         0.08179
C         -0.19529         7.15132         0.04090
C          1.10064         7.89184         0.05178
C          2.38033         7.10233        -0.00115
C          3.61735         7.81706         0.41494
C          4.91107         7.08209         0.35533
C          6.16710         7.94682         0.15665
C          7.35653         7.06044         0.42187
C         -6.38830         9.46992        -0.17037
C         -5.18948        10.12347        -0.13294
C         -3.91227         9.44661        -0.22598
C         -2.60721        10.24246        -0.22258
C         -1.49307         9.41375         0.49661
C         -0.11577        10.03080         0.52833
C          1.09522         9.32521         0.49312
C          2.32669         9.95782         0.72732
C          3.64025         9.34380         0.30383
C          4.86111         9.85796         1.04114
C          6.02357         9.18773         1.01549
C        -11.15882        -0.72553         0.47371
C         -9.93210        -1.49087         0.62785
C         -8.65837        -0.72970         0.55057
C         -7.42063        -1.42824         1.08931
C         -6.10053        -0.67802         0.83098
C         -4.85404        -1.33199         1.43843
C         -3.53426        -0.58794         1.05998
C         -2.27841        -1.37990         0.70082
C         -1.07873        -0.66688         0.12220
C          0.09847        -1.43075        -0.42265
C          1.17449        -0.82321        -0.98729
C          2.39767        -1.61620        -1.45743
C          3.73578        -0.76194        -1.49213
C          5.07676        -1.49329        -1.45562
C          6.41046        -0.76303        -1.33602
C          7.59699        -1.62056        -0.75641
C          8.47198        -0.83926         0.25301
C          9.84256        -1.53900         0.44884
C         10.71152        -0.72937         1.38997
C         -9.88453        -2.86219         0.65528
C         -8.63998        -3.59551         0.62044
C         -7.33753        -2.82662         0.44622
C         -6.13638        -3.60762         0.95341
C         -4.85358        -2.88508         1.25873
C         -3.49613        -3.60463         1.19227
C         -2.51110        -2.83295         0.27282
C         -1.18597        -3.59553         0.00613
C          0.14502        -2.82009         0.21071
C          1.38749        -3.65015        -0.17258
C          2.63800        -2.84975        -0.56760
C          3.77367        -3.71162        -1.14111
C          5.09348        -3.02293        -1.31649
C          6.26549        -3.76020        -0.74654
C          7.34909        -3.03098        -0.25924
C          8.45253        -3.69726         0.36814
C          9.59421        -2.94716         1.03180
C         -8.60177        -4.96675         0.59206
C         -7.36170        -5.71260         0.55674
C         -6.15479        -5.06861         0.68486
C         -4.88616        -5.79768         0.91315
C         -3.62538        -5.08609         0.82734
C         -2.38881        -5.82101         0.64257
C         -1.20419        -5.09106         0.08333
C          0.02808        -5.89605        -0.12900
C          1.29780        -5.13914        -0.31498
C          2.47166        -5.89661        -0.86067
C          3.76822        -5.20689        -0.97983
C          5.00169        -5.93562        -0.61214
C          6.20303        -5.17657        -0.48444
C          7.36181        -5.85019         0.01535
C          8.47748        -5.07780         0.43252
C         -7.43979        -7.23040         0.44512
C         -6.14788        -7.75448        -0.21588
C         -4.92232        -7.31625         0.57294
C         -3.69367        -8.00670         0.27872
C         -2.41508        -7.36219         0.40040
C         -1.33211        -8.00204        -0.44636
C         -0.03661        -7.23581        -0.37871
C          1.15894        -7.87163        -1.00309
C          2.44104        -7.32681        -0.42044
C          3.68954        -8.03623        -0.07064
C          4.96741        -7.29264        -0.25905
C          6.17962        -7.99424         0.01084
C          7.35854        -7.26406         0.15506
C         -6.12433        -9.22164        -0.58405
C         -5.01375        -9.97400        -0.56293
C         -3.76015        -9.50943         0.13648
C         -2.44631       -10.18147        -0.19644
C         -1.26015        -9.52227        -0.21581
C          0.04476       -10.21576        -0.27647
C          1.12432        -9.78632         0.45863
C          2.52204       -10.26231         0.26083
C          3.66485        -9.52175         0.06854
C          4.97298       -10.15782         0.08721
C          6.13183        -9.44349         0.12990
O         -8.58698        -0.01389        -0.73491
O         -1.99879        -6.79736         1.67789
O         -1.37661        -4.36307        -1.21739
O          4.23108         7.30589         1.62981
O          6.42956         1.09363        -2.58674
O         -4.99712         2.68906         1.80997
O         -5.68738         7.49347         1.09758
O         -5.07203        -6.85579         1.95454
O          8.33702         2.75556        -2.02822
O         -1.27702         0.75857        -1.83871
O          2.81072        -7.41354         0.98631
O          1.73317        -4.52346         0.94758
O         -5.97299        -0.12459        -0.50040
O          1.12333        -8.42114        -2.09949
O          4.34933        -3.51319        -2.46747
O         -7.48607         2.51840         1.80852
O          3.00598        -5.73030        -2.17783
O         -3.25508         0.35018         2.14556
O          4.50713         4.75008         1.06133
O         -4.75735         5.27296        -1.90727
O          4.47017        -1.04355        -2.71640
O         -2.46832         2.99236        -1.87030
O         -1.93047         5.61223        -2.30661
O          9.74853         0.97626        -0.89730
O          0.32431        -2.56216         1.58077
O         -5.69693        -3.41383         2.34392
O          0.74329         3.38872        -2.30877
O         -1.05861         7.15104         1.23430
O         -1.19647        -0.94082         1.55499
O          8.25934        -1.91038        -1.99858
O          1.77738         7.73160        -1.24928
O          0.18076         4.91416         0.77383
O          7.74870        -0.91668         1.49904
H          8.28608        -0.50270         2.20657
O         -7.65979        -1.53396         2.49611
H         -6.87060        -1.96028         2.91440
O          2.39960         2.62412         0.92240
H          2.89486         3.36470         1.33545
O         -6.33250         3.16790        -1.56946
H         -5.74152         3.75604        -2.10418
O         10.56328        -1.68117        -0.78138
H          9.90198        -1.79576        -1.51708
O         -3.98576        -9.89260         1.54662
H         -3.22180        -9.56962         2.07244
O         -7.63969        -7.81792         1.72932
H         -6.86322        -7.57587         2.28650
O         -7.10552        -2.65920        -0.97080
H         -7.56339        -1.84537        -1.27962
O         -5.01691        -1.11900         2.85413
H         -4.22496        -1.47104         3.31406
O         -2.25264         8.03579        -2.12981
H         -1.95680         7.30278        -2.72839
O          6.15917         5.93635        -2.01567
H          6.26931         5.28373        -2.75968
O          1.23307         0.54933        -2.93780
H          0.31080         0.59740        -3.27465
O         -6.01026        -7.04063        -1.48376
H         -6.63607        -7.42869        -2.13037
O        -10.06974         1.69746         2.23819
H         -9.22634         2.13788         2.50471
O         10.81079        -3.68242         0.93222
H         11.24271        -3.37218         0.10159
O          3.47833         3.89977        -2.35319
H          4.31777         3.69590        -2.83317
O         -2.93467        -3.56812         2.51922
H         -3.51956        -4.09564         3.10551
O          6.73865         1.55181         1.00945
H          7.33515         2.07673         1.58593
O         -3.18943         4.44609         1.32098
H         -3.36450         3.81035         2.05443
O          3.74601         9.70702        -1.09837
H          3.05305         9.19798        -1.58356
O         -2.22192        10.64875        -1.52836
H         -2.20388         9.84798        -2.10609
O          6.15245         3.59882        -2.63802
H          7.00924         3.14054        -2.92832
O          2.09912        -2.06449        -2.77636
H          1.99065        -1.26247        -3.33925
O         -1.77399        -7.85479        -1.82498
H         -1.04208        -8.18099        -2.39808
O         -1.90033         9.45594         1.89228
H         -1.50354         8.66718         2.33274
O         -1.58585         2.11982         1.51545
H         -1.67775         1.42530         2.21222
O          6.24111         8.43709        -1.19831
H          6.32945         7.65987        -1.80395
O        -10.02119         5.69172        -0.06966
H        -10.03391         5.66517         0.90900
O         -3.19864        -2.66148        -0.98274
H         -2.89609        -3.38092        -1.58986
O          3.14167        -2.32625         0.69030
H          2.41214        -2.38688         1.35805
O          0.86313        -8.96241         1.51185
H          1.69166        -8.52231         1.82321
O          7.02636        -0.65501        -2.74403
H          6.38838        -1.05995        -3.39012
H         11.41236        -1.27334         2.04109
H         11.32550         1.18196         2.09052
H         10.05630         3.23052         1.66533
H          9.37508         5.44644         0.80091
H          8.21833         7.45760         0.98328
H          6.90281         9.56876         1.55734
H          4.76533        10.78837         1.62169
H          2.32011        11.02429         1.00365
H         -0.07215        11.10351         0.77617
H         -2.75974        11.17371         0.37883
H         -5.17927        11.22338        -0.15162
H         -7.32435        10.03795        -0.27506
H         -8.60125         7.68837        -0.57060
H         -8.96303         4.92147        -1.64782
H        -10.94350         3.33465        -0.11196
H        -12.16189         1.13865         0.30254
H        -12.08831        -1.29457         0.31513
H        -10.82182        -3.44002         0.67857
H         -9.54176        -5.53876         0.62529
H         -8.32078        -7.50797        -0.19063
H         -7.04669        -9.62607        -1.03389
H         -5.04755       -11.01425        -0.92161
H         -2.45040       -11.28017        -0.11793
H          0.19137       -10.97826        -1.05497
H          2.65193       -11.35903         0.27512
H          5.00725       -11.25492         0.16292
H          7.08933        -9.97563         0.23081
H          8.28979        -7.77563         0.43934
H          9.35844        -5.57770         0.86010
H          9.33842        -2.84894         2.12408
