         651
 CSIRO Nanostructure Databank - Neutral Graphene Oxide Data Set
C          5.78744        31.73630        -0.19042
C          5.60006        33.09914        -0.16512
C          8.28436        27.40374         0.04524
C          8.22175        28.77172         0.11590
C          7.01137        29.57039        -0.01822
C          8.28219        31.66045         0.06889
C          7.02801        30.95785        -0.14856
C          8.49902        32.97592        -0.24241
C          6.63408        34.09603        -0.40120
C          8.17218        36.01907        -0.12356
C          6.84768        35.38275         0.02324
C          8.27194        37.38253        -0.28878
C         10.70800        23.03376         0.22137
C         10.71913        24.47418         0.45063
C          9.63437        25.19432         0.02488
C         10.79451        27.36753         0.49135
C          9.61377        26.68889        -0.16469
C         10.81072        28.83939         0.46380
C          9.49800        29.52641         0.28280
C         10.64337        31.69841         1.05157
C          9.38823        30.94519         0.72592
C         10.68298        33.15483         0.80612
C          9.54601        33.78627         0.31412
C         10.74043        36.00340         0.31291
C          9.41987        35.26109         0.26907
C         10.79040        37.29177        -0.51593
C          9.51877        38.12478        -0.41321
C         10.72517        40.30572        -0.83999
C          9.50997        39.47777        -0.64864
C         10.78547        41.76823        -0.67131
C         13.27807        18.78298         0.29094
C         13.16076        20.15618         0.56590
C         11.90390        20.79488         0.35319
C         13.39394        23.22282         1.37598
C         11.57218        22.10703         0.79230
C         13.24254        24.51760         1.01514
C         11.88228        25.20008         1.16914
C         13.17365        27.44517         0.93045
C         11.93673        26.68870         0.82826
C         13.21265        28.83638         1.12231
C         11.96488        29.58066         1.04782
C         13.09633        31.73129         1.58787
C         11.91079        30.94526         1.20228
C         13.13421        33.15029         1.25093
C         11.94702        33.85826         0.88557
C         13.22826        35.97740         0.75670
C         11.98299        35.21988         0.52119
C         13.31979        37.38417         0.26963
C         12.10514        38.07196        -0.29313
C         12.97882        40.44293         0.19264
C         12.04681        39.56749        -0.46974
C         13.19949        41.77568        -0.12288
C         11.98324        42.45153        -0.53412
C         13.33489        44.57782        -0.20509
C         11.97081        43.95733        -0.43558
C         13.35963        45.96187        -0.14630
C         15.84991        14.43518         0.25319
C         15.84449        15.92444         0.51265
C         14.53043        16.64341         0.32185
C         15.81753        18.74767         0.46765
C         14.49397        18.01705         0.35579
C         15.65247        20.25384         0.20658
C         14.44631        20.89913         0.86292
C         15.79556        23.12926         0.72356
C         14.58277        22.38622         1.12961
C         15.76505        24.56922         0.69201
C         14.44801        25.25219         0.56433
C         15.70321        27.52465         0.54713
C         14.41602        26.75797         0.54222
C         15.72190        28.92842         1.02304
C         14.45920        29.54358         1.27012
C         15.72870        31.70696         1.56348
C         14.46045        30.94397         1.65383
C         15.69221        33.07288         1.42548
C         14.46444        33.75214         0.87298
C         15.82593        35.89844         0.82072
C         14.50340        35.25129         1.04380
C         15.84615        37.29525         0.38612
C         14.60934        38.06976         0.58336
C         15.84803        40.25317         0.66976
C         14.70190        39.39183         0.88322
C         15.74518        41.67279         0.43980
C         14.49453        42.41636         0.17827
C         15.79319        44.61962         0.24524
C         14.53079        43.81221         0.00678
C         15.79905        45.93448        -0.59016
C         14.55416        46.76019        -0.18880
C         15.43286        49.12106        -0.21764
C         14.41592        48.11801         0.05109
C         15.76122        50.27702         0.41273
C         18.33646        10.32651        -0.34588
C         18.41296        11.59655         0.45783
C         17.13560        12.35547         0.25822
C         18.33173        14.53694         0.20216
C         17.07690        13.75378         0.18685
C         18.28163        15.90452         0.08124
C         16.96446        16.53531        -0.37050
C         18.22532        18.82154        -0.16068
C         16.91446        18.10597        -0.44668
C         18.19015        20.30503        -0.25492
C         16.90518        21.03941        -0.00760
C         18.21742        23.16251         0.40207
C         16.98924        22.46784         0.39325
C         18.29139        24.65729         0.51461
C         16.94056        25.28516         0.68171
C         18.18105        27.44501         1.16920
C         16.97906        26.75064         0.60309
C         18.27068        28.92267         0.84310
C         16.94687        29.58791         1.21600
C         18.21285        31.65308         1.65374
C         16.98505        30.98069         1.55440
C         18.22188        33.10273         1.85364
C         16.91225        33.85957         1.64869
C         18.25957        35.96877         1.25957
C         16.98935        35.25948         1.16955
C         18.29855        37.34556         1.07413
C         17.13768        38.07754         0.57329
C         18.30860        40.25095         0.65302
C         17.07777        39.55657         0.68021
C         18.26916        41.66614         0.41922
C         17.01666        42.37263         0.31802
C         18.29014        44.44794        -0.00561
C         17.05564        43.78386         0.10530
C         18.31934        45.90621        -0.15228
C         17.14178        46.63125        -0.42777
C         18.40755        48.73597        -0.21803
C         17.28527        48.00606        -0.64599
C         18.37371        50.18031         0.14116
C         17.07278        51.05103         0.27068
C         18.31419        52.92507        -0.89281
C         17.13720        52.17657        -0.74668
C         18.30055        54.21433        -1.44398
C         20.64993         6.23727        -2.03176
C         20.55218         7.69512        -1.99023
C         19.38887         8.37781        -1.39939
C         20.79891        10.30566        -0.70214
C         19.45651         9.68065        -0.88770
C         20.90097        11.71309        -0.09490
C         19.63651        12.44038         0.16306
C         20.88491        14.56626         0.26901
C         19.60045        13.80884         0.23096
C         20.85611        16.06031         0.23727
C         19.49722        16.72369         0.21109
C         20.69770        18.86196        -0.06640
C         19.44236        18.16897        -0.06706
C         20.69772        20.29362         0.34890
C         19.46405        21.06172        -0.06311
C         20.65497        23.17648         0.60274
C         19.46123        22.49786         0.32266
C         20.69997        24.54262         1.07990
C         19.36807        25.13588         1.52247
C         20.68787        27.39200         1.61933
C         19.40002        26.67229         1.58127
C         20.70705        28.80692         1.66586
C         19.49435        29.56435         1.45882
C         20.70981        31.66228         1.86506
C         19.47789        30.94651         1.64096
C         20.72106        33.08424         1.85005
C         19.48878        33.84933         1.71037
C         20.74065        35.99338         1.87811
C         19.46746        35.22475         1.58861
C         20.77113        37.39750         1.34987
C         19.49169        38.17198         1.47840
C         20.77019        40.17882         0.62725
C         19.52259        39.54120         0.84121
C         20.78772        41.60506         0.34059
C         19.52084        42.33836         0.30380
C         20.79250        44.45088         0.06444
C         19.51155        43.72614         0.09307
C         20.76665        45.82838        -0.47437
C         19.55087        46.60847        -0.16258
C         20.91242        48.71948        -0.15981
C         19.60895        48.00849        -0.11467
C         20.91229        50.17701        -0.40554
C         19.67628        50.92390        -0.05787
C         20.86934        52.95835        -0.94344
C         19.62048        52.43438        -0.26159
C         20.85008        54.32870        -1.46896
C         19.52922        54.98121        -1.73150
C         20.80660        57.13899        -2.11866
C         19.46515        56.50290        -1.78639
C         20.85076        58.29469        -2.82362
C         23.08583         3.50497        -2.63771
C         21.89816         4.15114        -2.41024
C         23.09180         6.32740        -2.44945
C         21.84142         5.58773        -2.30929
C         23.11684         7.69503        -2.27914
C         21.87653         8.46402        -2.09532
C         23.17569        10.44736        -1.36097
C         21.97031         9.78338        -1.42298
C         23.23843        11.82051        -0.92121
C         22.13039        12.45647        -0.41807
C         23.33527        14.70580        -0.54403
C         22.17406        13.89502        -0.09773
C         23.26972        16.13266        -0.57525
C         22.03435        16.80780        -0.25381
C         23.07164        19.00534        -0.82697
C         21.92739        18.21059        -0.29829
C         23.12624        20.48830        -0.61245
C         21.89117        21.10587        -0.08590
C         23.22313        23.16835         0.57253
C         21.93084        22.43933         0.56336
C         23.17934        24.68321         0.63110
C         21.88352        25.21955         1.21744
C         23.22091        27.31447         1.78845
C         21.91148        26.55687         1.93491
C         23.17747        28.75178         2.30587
C         21.92247        29.51465         1.94142
C         23.18689        31.66112         2.10228
C         21.94433        30.93240         1.96977
C         23.17568        33.06667         2.02361
C         21.95784        33.76050         1.86444
C         23.27185        35.92167         1.35168
C         21.96313        35.19206         1.50058
C         23.24933        37.38284         1.27508
C         21.98275        38.05897         1.14394
C         23.26052        40.06227         0.46226
C         21.97231        39.45336         0.78099
C         23.28328        41.52869         0.09249
C         22.00864        42.25121         0.17689
C         23.36085        44.33662        -0.36416
C         22.09407        43.71363         0.11354
C         23.31647        45.69856        -0.94668
C         22.03086        46.48417        -0.87669
C         23.29844        48.70371        -1.15259
C         22.12865        47.95473        -0.61545
C         23.34046        50.15049        -0.91392
C         22.09551        50.84353        -0.68654
C         23.32453        52.97011        -1.14730
C         22.07234        52.28231        -0.90978
C         23.30292        54.40812        -1.29636
C         22.10350        55.08806        -1.41111
C         23.34789        57.16350        -2.01613
C         22.06048        56.59269        -1.46174
C         23.33413        58.40302        -2.70827
C         22.09409        58.99760        -3.10099
C         23.31658        60.86302        -4.09193
C         22.09978        60.21365        -3.78425
C         24.31143         4.22320        -2.74406
C         25.59278         6.33172        -2.65828
C         24.33970         5.60410        -2.64339
C         25.65461         7.69124        -2.50073
C         24.37683         8.47695        -2.48404
C         25.76422        10.42192        -1.57927
C         24.44817         9.72399        -1.64082
C         25.73554        11.91330        -1.59408
C         24.44896        12.60929        -1.26890
C         25.71112        14.76391        -1.16978
C         24.50293        14.04951        -0.94521
C         25.68167        16.19197        -1.14223
C         24.43637        16.85376        -0.94488
C         25.57711        19.14498        -1.37557
C         24.33929        18.30816        -1.18615
C         25.58956        20.56577        -0.95226
C         24.43565        21.20297        -0.50323
C         25.64608        23.27994         0.13681
C         24.45467        22.54571         0.01069
C         25.68362        24.57641         0.73775
C         24.42218        25.14655         1.39425
C         25.70208        27.32130         1.74540
C         24.39031        26.65386         1.57041
C         25.69630        28.80407         1.99255
C         24.42992        29.55086         2.03829
C         25.71861        31.66354         2.18226
C         24.45274        30.93685         2.12066
C         25.75051        33.10960         2.41302
C         24.40820        33.86970         2.23262
C         25.71496        35.96818         1.86574
C         24.50489        35.25040         1.79038
C         25.73419        37.37916         1.58441
C         24.48176        38.08959         1.30612
C         25.69258        40.29288         1.26457
C         24.48606        39.44956         0.97752
C         25.73303        41.65402         0.59689
C         24.56515        42.27939         0.22317
C         25.86408        44.30738        -0.45805
C         24.54911        43.66061        -0.22699
C         25.90350        45.75822        -0.91552
C         24.60339        46.43726        -1.22504
C         25.84486        48.69222        -1.09373
C         24.60343        47.94322        -1.33980
C         25.80912        50.10936        -1.11338
C         24.55079        50.82916        -1.08126
C         25.79301        52.99058        -1.14690
C         24.54288        52.27603        -1.11377
C         25.77061        54.42023        -1.21697
C         24.56859        55.11634        -1.35893
C         25.81991        57.12662        -2.14291
C         24.55893        56.49935        -1.77735
C         25.78902        58.40202        -2.77712
C         24.57277        59.03240        -3.08009
C         24.52686        60.28983        -3.75965
C         26.90854         8.43257        -2.46063
C         28.31011        10.47105        -1.94166
C         26.98179         9.74571        -2.09683
C         28.22974        11.98145        -1.73521
C         27.00569        12.65978        -1.53341
C         28.16823        14.81970        -1.44096
C         26.95880        14.07332        -1.39757
C         28.13935        16.25406        -1.37601
C         26.89608        16.92908        -1.32117
C         28.15868        19.12939        -1.31089
C         26.89290        18.39556        -1.46379
C         28.16068        20.63864        -1.47837
C         26.84178        21.33925        -1.10455
C         28.17680        23.30916        -0.07370
C         26.87632        22.73041        -0.48449
C         28.15636        24.60477         0.51480
C         26.91110        25.26513         0.84181
C         28.15471        27.31972         1.35222
C         26.94608        26.63248         1.29862
C         28.17309        28.80400         1.43938
C         26.92807        29.57828         1.67135
C         28.18937        31.71276         2.16042
C         26.95343        31.01802         2.04355
C         28.22685        33.13822         2.20627
C         26.99556        33.86269         2.18981
C         28.21474        35.99009         1.92232
C         26.97592        35.27044         2.04892
C         28.20585        37.40550         1.69962
C         26.95841        38.06714         1.50493
C         28.24208        40.28772         1.13569
C         26.96083        39.49035         1.07970
C         28.16604        41.76334         1.10291
C         26.99482        42.39138         0.67779
C         28.23218        44.52415         0.26474
C         27.03507        43.76530         0.24733
C         28.25143        45.91234        -0.15777
C         27.08152        46.57522        -0.58822
C         28.27221        48.73225        -0.68904
C         27.05056        47.99115        -0.78177
C         28.27207        50.14145        -0.93868
C         27.03933        50.84797        -1.07854
C         28.26763        53.02309        -1.25091
C         27.01932        52.28141        -1.14292
C         28.28001        54.38101        -1.27471
C         27.04664        55.20895        -1.06607
C         27.02218        56.47876        -1.86816
C         29.41551        12.72109        -1.74413
C         30.61821        14.88895        -1.58015
C         29.41338        14.13462        -1.59206
C         30.60745        16.28868        -1.48261
C         29.36146        16.99533        -1.42544
C         30.62393        19.21300        -1.63088
C         29.34607        18.43556        -1.38538
C         30.58910        20.58586        -0.98493
C         29.40607        21.26183        -0.83810
C         30.62546        23.19554         0.18097
C         29.38294        22.61118        -0.27775
C         30.60313        24.51152         0.72764
C         29.40121        25.23887         0.81890
C         30.60718        27.38986         1.09687
C         29.40489        26.65572         1.14669
C         30.68986        28.78441         1.36931
C         29.45373        29.46044         1.83031
C         30.76550        31.62315         2.25505
C         29.44091        30.91067         2.23546
C         30.77036        33.13707         2.52382
C         29.46272        33.87872         2.21146
C         30.71668        36.05995         1.67780
C         29.45521        35.26433         2.01808
C         30.70641        37.51879         2.23295
C         29.42396        38.20375         1.76778
C         30.68022        40.36920         1.83118
C         29.43725        39.57245         1.61441
C         30.65445        41.87175         1.68608
C         29.32428        42.63287         1.54931
C         30.64357        44.63556         0.73657
C         29.42750        43.93479         0.77426
C         30.67689        45.99429         0.29455
C         29.47558        46.65444        -0.07412
C         30.72838        48.76703        -0.43032
C         29.48408        48.04593        -0.40339
C         30.70722        50.16353        -0.76454
C         29.52869        50.83532        -1.00035
C         29.56983        52.27651        -1.45036
C         31.83153        17.02996        -1.35012
C         33.07045        19.09545        -0.99734
C         31.86354        18.41386        -1.29019
C         33.12928        20.47207        -0.75479
C         31.90070        21.33875        -0.96101
C         33.11963        23.02885         0.46106
C         31.85388        22.51894        -0.02789
C         33.16685        24.48392         1.02532
C         31.84419        25.19974         1.28141
C         33.13511        27.38336         0.74217
C         31.85262        26.64023         0.81997
C         33.11822        28.84839         0.92479
C         31.89463        29.49682         1.25841
C         33.18267        31.66753         1.30863
C         31.98384        30.90470         1.71688
C         33.24537        33.13954         1.68103
C         31.86438        33.82941         1.67736
C         33.31260        36.07048         1.81268
C         31.99126        35.32223         2.17116
C         33.24879        37.55476         1.61036
C         31.94940        38.27073         1.72732
C         33.22693        40.38306         1.47784
C         31.95343        39.62449         1.63645
C         33.20797        41.87995         1.35566
C         31.90649        42.60621         1.34575
C         33.20368        44.70247         1.08411
C         31.88824        43.94325         1.04653
C         33.12906        46.08565         0.52031
C         31.93462        46.71561         0.21810
C         31.92129        48.09487        -0.16799
C         34.35078        21.10605        -0.47267
C         35.58007        23.17263         0.09946
C         34.39480        22.45190        -0.02935
C         35.60237        24.56423         0.45406
C         34.39752        25.21960         0.80702
C         35.63001        27.44892         0.66657
C         34.41537        26.68900         1.13936
C         35.58560        28.84367         0.61773
C         34.32555        29.54406         0.82649
C         35.51551        31.70248         0.43387
C         34.30142        30.98802         0.89329
C         35.50145        33.18774         0.38713
C         34.22547        33.94026         0.76311
C         35.50057        36.02473         0.44964
C         34.57659        35.29243         1.40925
C         35.47279        37.51140         0.33025
C         34.36871        38.27452         0.94641
C         35.53028        40.35636         0.36393
C         34.38351        39.63711         0.91489
C         35.48038        41.74543         0.24232
C         34.35749        42.53618         0.66062
C         34.31890        43.89151         0.47024
C         36.81029        25.31254         0.34166
C         38.04353        27.46535         0.21988
C         36.84884        26.72903         0.42785
C         38.04901        28.87592         0.23275
C         36.80977        29.58724         0.41572
C         37.99601        31.74097         0.16697
C         36.80804        30.99275         0.38362
C         37.98790        33.17568         0.11410
C         36.78892        33.91976         0.30490
C         37.96857        36.04597        -0.08482
C         36.78267        35.31222         0.23271
C         37.91118        37.46641        -0.20959
C         36.73580        38.21709         0.01150
C         36.69757        39.62088        -0.00810
C         39.24111        29.63049         0.02966
C         40.43654        31.79107        -0.23655
C         39.23225        31.02730        -0.00608
C         40.41906        33.15379        -0.30751
C         39.19615        33.90470        -0.14136
C         39.16937        35.30374        -0.25524
O         27.44759        29.39494         0.29678
O         16.49984        27.31069        -0.67711
O         26.69490        22.54476        -1.93850
O         24.24446         9.08684        -3.89026
O         22.15707        21.17132        -1.50811
O          7.68642        33.59032        -1.19400
O          9.90381        35.93313         1.50472
O         13.53991        39.98405         1.38291
O         33.66689        36.97745         2.90062
O         14.25183        25.97280        -0.69667
O         14.76655        21.35359         2.20362
O         33.23461        23.31232         1.90499
O         12.30127        22.54353         1.92904
O         21.80771        14.11502         1.32168
O         20.24789        16.55334         1.47963
O         35.26978        32.41767        -0.85910
O         30.70814        41.23605         3.02055
O         19.24832        50.46639         1.27761
O         23.35539        40.51452        -0.96215
O         24.85545        12.39260        -2.67991
O         30.70068        37.51171         3.62520
O         29.40872        29.84322         3.25053
O         25.24129         9.70317        -0.40108
O         25.85349        27.86609         3.13408
O         21.09236        10.52203         0.73351
O         24.98575        33.60597         3.55334
O         26.18738        44.67010        -1.84627
O         21.55201        44.38177         1.33041
O         32.48872        26.88799        -0.47775
O         23.33958        18.63259        -2.22158
O         21.09710        46.02239        -1.90477
O         13.73875        35.80894         2.14779
O         21.93281        48.25739         0.80619
O         31.70367        30.99057         3.17607
O         23.89108        45.77378        -2.29674
O         17.44622        33.61824         2.99197
O         13.70078        31.30171         2.84771
O         33.57084        41.24134         2.62647
O         18.96455        20.82245        -1.41040
O         15.91729        20.80964        -1.11400
O         20.24781        54.39472        -2.88944
O         13.12141        37.48980        -1.19241
O         10.41108        29.40918        -0.87184
O         20.96808         8.39968        -3.23931
O         11.70527        39.87745        -1.84244
O         19.04557        24.62228         2.81702
O         22.73698        22.51325         1.78863
O          9.66283        31.27555         2.11218
O         23.79419        48.37114        -2.47998
O         16.27048        48.71847        -1.28598
O         16.67462        37.61381        -0.76360
O         27.68990        39.72402        -0.14349
O         22.52562        35.35734         0.16933
O         26.17282        18.89408        -2.68018
O         34.94283        36.62098        -0.75013
O         33.54514        44.86938         2.50456
H         33.58514        43.97372         2.90627
O         16.32589        18.67793         1.81634
H         15.65714        19.05909         2.42440
O         11.54899        25.17014         2.58454
H         11.55418        24.22238         2.85369
O         21.98533        57.03269        -0.05179
H         22.04145        58.01226        -0.05088
O         18.51659        11.21780         1.87792
H         19.42799        10.86435         2.00382
O         10.78750        36.82852        -1.89173
H         11.69765        36.94654        -2.25203
O         18.46506        56.89908        -2.72641
H         18.67671        56.46990        -3.58165
O         14.56383        33.57765        -0.59269
H         14.60275        32.61811        -0.79228
O          9.85428        26.85029        -1.61037
H         10.04038        27.81227        -1.75842
O         18.40919        27.17819         2.57696
H         19.70995        24.97072         3.45111
O         30.70449        19.46124        -3.07463
H         29.85325        19.90765        -3.32793
O         34.44479        26.75408         2.60559
H         35.25398        26.29346         2.91266
O         35.39699        35.08841         2.56764
H         34.83215        34.69464         3.27397
O         29.90870        52.30048        -2.85509
H         29.21249        51.81474        -3.34362
O         20.73386        20.28408         1.80652
H         20.25528        19.49239         2.13306
O         28.34245        20.85169        -2.91298
H         27.88719        21.70109        -3.13101
O         23.30735        25.21029        -0.71026
H         22.54531        24.90673        -1.24708
O         16.25379        16.07121         1.90221
H         15.56013        15.67735         2.47045
O         32.02917        21.85408        -2.33470
H         31.79601        21.09909        -2.93146
O         20.80367        36.10895         3.33916
H         20.08107        36.73009         3.60284
O         18.45280        29.09754        -0.58931
H         17.73353        28.58395        -1.03731
O         23.14981        28.58504         3.78181
H         24.06263        28.30036         4.03465
O         24.13912         7.99646        -4.82381
H         25.06231         7.89369        -5.16019
O         21.76223        26.25309         3.36346
H         22.06723        27.06025         3.85398
O         19.63113        53.05805         1.06603
H         20.27051        52.56486         1.62462
O         15.76386        45.06143         1.63584
H         15.75614        44.26659         2.20924
O         15.64542        45.56735        -1.97582
H         15.68127        46.38748        -2.51152
O         16.59127        18.40873        -1.81867
H         16.49587        19.39143        -1.92285
O         24.35984        24.57270         2.71845
H         25.05095        24.99032         3.27305
O         33.59723        34.26583        -0.49855
H         33.98936        33.66498        -1.17934
O         16.74771        15.98940        -1.68739
H         16.67849        16.74469        -2.31961
O         25.65500        40.57311         2.70972
H         24.87159        41.13052         2.90105
O         27.09648        55.65316         0.35188
H         26.26971        56.15344         0.52438
O         17.14524        51.76353         1.52961
H         18.01262        52.23918         1.57613
O         19.30725        38.42260         2.94624
H         19.98204        39.08419         3.21284
O         11.37318        44.53878        -1.60487
H         11.91138        44.28160        -2.38153
O         33.72831        33.16905         3.04228
H         32.94208        33.09796         3.64272
O         31.66645        25.25329         2.72070
H         31.99492        24.39762         3.07884
O         18.79547        25.15927        -0.76912
H         18.12945        24.95634        -1.46072
O         30.74276        36.23648         0.25299
H         30.57245        35.35761        -0.16053
O         31.28001        33.70242         0.36227
H         31.98520        33.90308        -0.31039
O         31.96641        35.30566         3.58886
H         31.66737        36.21429         3.90538
O         28.94955        43.07176         2.89596
H         29.35456        42.41981         3.51963
O         29.17354        10.18066        -3.04709
H         28.79143        10.58837        -3.85106
O         31.00134        33.22975         3.94120
H         30.54347        32.48300         4.38116
H          4.87445        31.12699        -0.07738
H          4.57697        33.46273         0.02393
H          7.36198        26.82688        -0.12878
H          6.05117        29.03558        -0.08380
H          6.04811        35.96074         0.51159
H          7.34318        37.96253        -0.41037
H         10.03903        22.67886        -0.57885
H          8.78951        24.64659        -0.42439
H          8.54496        40.00920        -0.62020
H          9.85053        42.34426        -0.73167
H         12.35120        18.22746         0.07712
H         11.15867        20.24001        -0.23877
H         11.30396        44.24468         0.42493
H         12.39334        46.49055        -0.16528
H         14.91305        13.85674         0.31239
H         13.59581        16.06601         0.23481
H         13.44370        48.46157         0.44262
H         15.14026        50.60713         1.25825
H         17.36134         9.81873        -0.40218
H         16.19410        11.78444         0.28392
H         16.19727        52.60813        -1.12532
H         17.33882        54.66263        -1.73844
H         19.75573         5.64527        -1.78341
H         18.42205         7.85143        -1.39191
H         19.13761        56.87955        -0.77915
H         19.91507        58.71791        -3.22180
H         23.10569         2.40934        -2.72320
H         20.96322         3.57989        -2.31714
H         23.29230        61.82551        -4.62173
H         21.14743        60.66867        -4.09167
H         25.24869         3.66700        -2.89037
H         26.52412         5.74822        -2.73352
H         26.73785        58.88876        -3.04741
H         25.47082        60.78601        -4.02687
H         27.83309         7.89411        -2.72193
H         28.81698        10.03870        -1.03289
H         29.23799        54.91389        -1.37696
H         27.97494        56.97479        -2.10824
H         30.37123        12.20115        -1.90453
H         31.58114        14.36103        -1.64311
H         31.66403        50.70264        -0.83021
H         30.39670        52.81481        -0.92237
H         32.76689        16.46628        -1.20914
H         33.99095        18.50054        -0.88293
H         34.06921        46.65431         0.45133
H         32.87596        48.63924        -0.21577
H         35.29027        20.53890        -0.56197
H         36.52518        22.69916        -0.20607
H         36.34163        42.27365        -0.19454
H         35.15563        44.40735        -0.02495
H         37.73720        24.77440         0.09378
H         38.98411        26.92356         0.04015
H         38.84024        38.00706        -0.44855
H         37.60085        40.18114        -0.29508
H         40.19028        29.09332        -0.11768
H         41.38247        31.24475        -0.36613
H         41.35084        33.70759        -0.49494
H         40.10221        35.83963        -0.48761
