         490
 CSIRO Nanostructure Databank - Neutral Graphene Oxide Data Set
C         39.16740        49.36242        -4.79725
C         38.43863        49.88310        -5.80349
C         39.66489        51.99275        -5.77241
C         38.62889        51.26292        -6.22924
C         41.29485        48.14049        -3.12203
C         41.25063        49.52160        -3.29271
C         40.11971        50.23966        -4.01987
C         41.53296        52.29728        -4.02815
C         40.71532        51.35170        -4.89310
C         41.61772        53.67128        -4.27766
C         43.26093        48.25543        -1.67514
C         42.34005        47.52117        -2.37489
C         43.09065        49.75398        -1.59366
C         42.25375        50.33209        -2.70316
C         43.38593        52.52231        -2.41069
C         42.37079        51.72087        -3.03019
C         43.46188        53.91479        -2.69122
C         42.52926        54.47421        -3.59515
C         45.64173        45.64302        -0.34901
C         44.60174        46.20695        -0.97370
C         45.43327        48.47375        -0.39799
C         44.19335        47.63066        -0.65728
C         45.46532        49.86654        -0.71577
C         44.36766        50.50965        -1.34184
C         45.52040        52.67398        -1.15857
C         44.41467        51.89018        -1.62242
C         45.51426        54.08926        -1.35246
C         44.51159        54.71086        -2.08768
C         45.68341        56.86964        -1.98810
C         44.58518        56.15396        -2.30192
C         47.64496        44.46784         1.62926
C         47.69668        45.77387         1.12698
C         46.40529        46.43889         0.69241
C         47.76452        48.57749         0.30761
C         46.54915        47.86338         0.17656
C         47.81212        49.96856         0.08483
C         46.63063        50.63320        -0.37190
C         47.75891        52.81879        -0.06151
C         46.62696        52.04234        -0.52875
C         47.77098        54.20777        -0.18241
C         46.52893        54.94411        -0.62677
C         47.75320        57.06620        -0.49546
C         46.90961        56.20102        -1.41431
C         47.47150        58.40803        -0.23381
C         50.01678        44.51877         2.18515
C         48.78464        43.85591         2.15796
C         50.09355        45.82996         1.65384
C         48.92664        46.45433         1.13892
C         50.28105        48.59461         0.75203
C         49.00560        47.82652         0.59303
C         50.34706        50.10519         0.56624
C         48.98866        50.75414         0.40276
C         49.94301        52.94326         1.23290
C         48.92333        52.13223         0.44309
C         50.01737        54.38788         0.82434
C         48.92242        54.98147         0.20601
C         49.78885        57.19276         0.89282
C         48.85836        56.43534         0.13038
C         49.34093        58.47242         1.28556
C         48.22073        59.09062         0.73039
C         52.43752        41.77052         3.11840
C         51.26297        42.43039         2.98854
C         52.52869        44.55254         2.57867
C         51.19680        43.93454         2.95063
C         52.54782        45.88264         2.15917
C         51.34371        46.57666         1.74680
C         52.56591        48.73376         1.72864
C         51.39172        47.93288         1.45144
C         52.54209        50.11542         1.73572
C         51.20250        50.78634         1.65501
C         52.45319        53.01315         1.55260
C         51.28344        52.27360         1.41633
C         52.37933        54.46034         1.41902
C         51.18877        55.14991         1.17362
C         52.20994        57.38808         1.59345
C         51.09417        56.62162         1.25492
C         52.26545        58.85531         1.74472
C         51.15114        59.66615         2.04565
C         52.39746        61.73650         1.92177
C         51.20433        61.07193         2.12359
C         54.94387        40.30774         2.52304
C         54.98906        41.63241         3.23547
C         53.71807        42.44482         3.04676
C         55.06579        44.48249         2.52949
C         53.74710        43.80473         2.81689
C         54.96163        45.98225         2.65443
C         53.79075        46.63172         2.13033
C         55.02820        48.78238         1.90909
C         53.78307        48.01828         1.97972
C         55.03818        50.22897         2.04995
C         53.70743        50.91013         2.27256
C         54.92797        53.08409         2.07713
C         53.73225        52.37171         1.88003
C         54.85381        54.53681         1.95369
C         53.65625        55.24787         1.32754
C         54.75774        57.44496         1.65952
C         53.50020        56.65330         1.94903
C         54.74665        58.84368         1.51642
C         53.51235        59.56309         1.65209
C         54.86111        61.65479         1.68993
C         53.58397        60.99017         1.71340
C         54.98740        63.08508         1.50398
C         57.38317        40.23544         2.34045
C         56.08977        39.64837         2.19069
C         57.49240        41.60606         2.69349
C         56.29010        42.37413         2.95873
C         57.62553        44.41275         2.99193
C         56.32973        43.76149         3.01714
C         57.83312        45.77626         3.32076
C         55.99554        46.79503         3.04688
C         57.54704        48.80635         2.65810
C         56.31345        48.05621         2.42069
C         57.51020        50.16472         2.35803
C         56.24055        50.90593         2.19545
C         57.48998        52.98023         2.26041
C         56.22091        52.36762         2.25566
C         57.67100        54.41632         2.34273
C         55.83902        55.40713         2.36100
C         57.24235        57.31473         1.53201
C         55.98134        56.75491         1.84775
C         57.19482        58.75086         1.02124
C         55.99623        59.52109         1.51404
C         57.38690        61.49305         2.12405
C         56.05456        60.90274         1.70054
C         57.38078        63.05557         2.26488
C         56.18775        63.70501         1.60072
C         59.76536        37.31318         1.98147
C         58.60366        38.01230         2.08662
C         59.89529        40.14367         1.98486
C         58.56043        39.48205         1.76143
C         59.94649        41.52964         2.21044
C         58.74758        42.27306         2.53061
C         60.02078        44.42823         2.49606
C         58.81291        43.69300         2.67648
C         60.04971        45.83966         2.48147
C         58.89035        46.56664         2.88126
C         60.03937        48.74714         2.33598
C         58.86961        48.09570         3.05896
C         60.00737        50.12976         2.10799
C         58.76546        50.88529         2.25909
C         59.96183        53.14104         2.02550
C         58.72703        52.25993         2.14038
C         59.67186        54.25334         0.96618
C         58.57047        55.14385         1.58333
C         59.54188        57.25916         0.55337
C         58.46530        56.56895         1.37586
C         59.67828        58.73983         0.82461
C         58.52348        59.46464         1.13496
C         59.74804        61.57398         1.23676
C         58.55562        60.87974         1.37466
C         59.81059        63.02116         1.37549
C         58.68250        63.72970         1.85226
C         59.93907        65.80695         1.69941
C         58.78283        65.11519         2.03875
C         62.27533        35.70796         1.47062
C         62.27466        37.17697         1.71620
C         61.03662        37.96031         1.79234
C         62.33019        40.08726         1.57656
C         61.09385        39.38231         1.80169
C         62.32687        41.51317         1.68343
C         61.19655        42.21662         2.09291
C         62.45209        44.41600         1.86009
C         61.31359        43.66799         2.50745
C         62.42732        45.85867         1.78889
C         61.25267        46.57056         2.11346
C         62.33010        48.67023         1.40121
C         61.20430        47.99366         1.98283
C         62.31517        50.09836         1.24461
C         61.16372        50.82034         1.61708
C         62.19757        52.94892         0.78949
C         61.27416        52.31400         1.81419
C         62.23754        54.41273         0.68066
C         60.91893        55.04800         0.58152
C         62.16875        57.26002         0.42096
C         60.87806        56.54214         0.38764
C         62.17058        58.68226         0.55477
C         60.95706        59.37180         0.82320
C         62.26766        61.57368         0.73514
C         60.99683        60.81575         1.07833
C         62.09618        63.01022         0.28450
C         60.98256        63.73218         1.00237
C         62.25777        65.86657         0.75265
C         61.04726        65.13500         1.13596
C         62.29848        67.25603         0.79300
C         64.34383        35.82971         0.05972
C         63.27031        35.08571         0.82266
C         64.62120        37.19968         0.61878
C         63.55655        37.92203         1.32778
C         64.70811        40.03797         0.82238
C         63.52009        39.38855         1.21069
C         64.72999        41.51257         0.75087
C         63.50427        42.27098         1.21191
C         64.84179        44.43288         1.27754
C         63.57717        43.71686         1.50023
C         64.78220        45.85304         0.97181
C         63.55656        46.55269         1.23843
C         64.56039        48.60129         0.19921
C         63.48073        47.94122         1.01608
C         64.65923        50.08631         0.39256
C         63.51246        50.76636         0.75877
C         64.64908        52.94358         0.08591
C         63.43102        52.19793         0.43353
C         64.61675        54.37360         0.01708
C         63.38559        55.09238         0.28504
C         64.60065        57.24829         0.01053
C         63.36486        56.54380         0.21471
C         64.60362        58.67258         0.01902
C         63.40579        59.39552         0.31793
C         64.61418        61.51025        -0.07418
C         63.42392        60.80739         0.24266
C         64.56644        62.99279        -0.23173
C         63.40886        63.75383         0.23676
C         64.69322        65.87849         0.17957
C         63.45346        65.14458         0.36140
C         64.68793        67.31531         0.28691
C         63.48294        67.96948         0.54587
C         66.59495        33.00702        -1.09360
C         65.51103        33.68953        -0.55057
C         66.86689        35.69828        -0.38384
C         65.61146        35.04787        -0.23684
C         66.92852        37.15549        -0.26507
C         65.76823        37.87731         0.22228
C         67.05225        39.98642         0.03138
C         65.86165        39.31027         0.41504
C         67.26383        41.42437         0.41652
C         66.00627        42.19515         0.65462
C         67.16388        44.37794         0.19818
C         66.10447        43.63207         0.86967
C         67.10365        45.76380         0.08756
C         65.93489        46.51975         0.48972
C         67.03052        48.61609        -0.21177
C         65.89228        47.91343         0.22801
C         67.01266        50.04142        -0.42078
C         65.83815        50.77980        -0.08882
C         66.95495        52.92392        -0.77356
C         65.81443        52.20767        -0.16888
C         67.00680        54.40192        -0.62859
C         65.79998        55.10111        -0.29539
C         67.02980        57.25021        -0.46989
C         65.81012        56.53415        -0.23815
C         67.02441        58.65977        -0.47315
C         65.82498        59.38382        -0.22341
C         67.13363        61.53195         0.03967
C         65.82285        60.81767        -0.21304
C         67.14992        63.01265        -0.25481
C         65.88607        63.75370        -0.38248
C         67.16185        65.85239        -0.08546
C         65.90449        65.19239        -0.07739
C         67.24545        67.32820         0.23350
C         65.92541        68.06060         0.11269
C         67.21925        70.13340        -0.12422
C         65.97355        69.42529        -0.00704
C         68.36764        31.99575        -3.05773
C         68.84536        32.83070        -2.02478
C         67.84820        33.62267        -1.26378
C         69.34259        35.61269        -0.69527
C         68.01848        34.94646        -0.77960
C         69.35958        37.14760        -0.73939
C         68.07361        37.86706        -0.62867
C         69.30522        40.01323        -1.04810
C         68.12694        39.30428        -0.55865
C         69.39864        41.39232        -0.99302
C         68.19980        42.13705        -0.53259
C         69.52810        44.32835        -0.75027
C         68.20463        43.61996        -0.53976
C         69.22862        45.71411        -1.27972
C         68.17790        46.47994        -0.55115
C         69.49737        48.51637        -0.94100
C         68.20147        47.85771        -0.55945
C         69.42611        50.01915        -0.98107
C         68.23699        50.69999        -0.86296
C         69.42271        52.94569        -1.58511
C         68.16099        52.15104        -1.21260
C         69.49654        54.26116        -0.76838
C         68.21396        55.07693        -0.78743
C         69.49524        57.18219        -0.81409
C         68.26489        56.50619        -0.69624
C         69.53441        58.66328        -0.50239
C         68.26705        59.38846        -0.95830
C         69.54005        61.50108        -0.50924
C         68.34903        60.84064        -0.51829
C         69.62380        62.92626         0.02071
C         68.33729        63.69576        -0.22544
C         69.63005        65.85425        -0.31751
C         68.35872        65.14398        -0.25181
C         69.65576        67.26693        -0.41621
C         68.34034        67.99015        -0.60231
C         69.67363        70.17706        -0.54061
C         68.40353        69.48495        -0.35730
C         69.72617        71.58476        -0.63462
C         70.57339        31.07750        -3.44282
C         69.21387        31.14091        -3.76215
C         71.08474        31.91217        -2.45041
C         70.23115        32.79482        -1.77382
C         71.76973        35.72107        -1.22322
C         70.64644        34.97920        -0.99124
C         71.69760        37.13547        -1.47391
C         70.53508        37.83020        -1.31137
C         71.51513        40.00201        -2.23918
C         70.28343        39.21355        -1.88351
C         71.57065        41.34837        -2.16547
C         70.50110        42.14721        -1.57930
C         71.56002        44.34406        -2.20793
C         70.52432        43.54334        -1.58144
C         71.45317        45.68458        -2.43504
C         70.19451        46.42332        -2.17179
C         71.23760        48.72629        -2.75986
C         70.00950        47.96131        -2.32112
C         71.50704        49.97313        -2.35241
C         70.76842        50.67609        -1.22007
C         71.87461        52.88064        -1.35358
C         70.71703        52.17589        -1.38424
C         71.87748        54.32369        -1.40316
C         70.74010        55.04160        -1.15259
C         71.87577        57.24167        -1.36278
C         70.71522        56.49515        -1.09798
C         71.89053        58.64655        -1.34752
C         70.77255        59.38538        -0.98741
C         71.92044        61.57950        -1.11907
C         70.77754        60.81932        -0.89461
C         71.92283        62.98782        -0.96877
C         70.84162        63.67961        -0.46372
C         72.06724        65.84789        -0.41127
C         70.85215        65.12525        -0.37461
C         72.07970        67.23086        -0.44643
C         70.87298        67.97075        -0.50245
C         72.09185        70.13195        -0.83880
C         70.88492        69.43408        -0.63251
C         72.11967        71.52044        -0.93561
C         70.93143        72.25111        -0.82682
O         63.29236        37.50209         2.73008
O         69.55341        36.42124         0.52301
O         56.83086        55.03418         3.27069
O         49.92714        59.10615         2.39433
O         65.06930        63.40709        -1.55897
O         62.28384        52.34810        -0.53941
O         55.96159        48.15115         0.99465
O         57.60590        60.93221         3.41305
O         61.96963        52.25280         3.05244
O         65.86471        44.05532         2.27887
O         67.10270        52.43938        -2.18849
O         49.97628        47.92988        -0.53384
O         70.82335        33.60199        -0.80032
O         60.81173        55.63418        -0.76335
O         56.83342        46.39302         4.09077
O         61.97798        61.26735         2.11498
O         58.72782        56.92077        -0.58124
O         63.72253        42.04258        -0.23993
O         67.62077        42.87228        -1.66487
O         69.01932        45.71385        -2.73102
O         45.59102        46.50076         1.89465
H         44.70896        46.87446         1.63840
O         67.29785        61.44814         1.51760
H         67.43758        60.50015         1.73690
O         67.65863        67.43441         1.62591
H         66.96283        67.02604         2.18175
O         41.66975        50.70634        -5.78552
H         42.05908        51.39475        -6.36366
O         51.06206        50.34252        -0.67323
H         50.75982        49.65183        -1.30654
O         59.16415        53.62944        -0.21830
H         59.27406        54.28409        -0.94758
O         70.11492        44.50781         0.56874
H         70.23657        43.62536         0.97884
O         63.73235        36.09115        -1.26135
H         64.41757        36.50789        -1.82669
O         53.46557        56.46046         3.39313
H         53.31773        57.33239         3.81624
O         61.68191        62.88655        -1.12197
H         61.75440        63.77143        -1.53859
O         69.75579        62.82373         1.47165
H         68.93278        62.37350         1.79143
O         53.91411        55.45165        -0.08857
H         53.97956        54.57418        -0.52003
O         59.06279        48.34917         4.47888
H         58.36786        47.85001         4.96081
O         49.34986        52.98321         2.59082
H         49.47597        52.07656         2.97185
O         68.01573        41.40940         1.68915
H         67.45500        40.97594         2.36728
O         56.88198        58.71186        -0.41102
H         57.50458        58.03335        -0.81044
O         47.74007        55.77778        -2.52776
H         47.99824        56.57366        -3.03670
O         69.36005        53.27329        -2.98441
H         68.41694        53.17763        -3.26144
O         50.53395        50.56115         2.94263
H         51.21982        50.68939         3.63805
O         71.59393        50.46480        -0.03523
H         71.59536        49.49040         0.13563
O         67.96812        67.81300        -2.00038
H         68.64402        68.26002        -2.55118
O         70.49393        48.06074         0.02824
H         70.08272        48.06855         0.91846
O         39.32957        50.89648        -2.98570
H         38.73168        50.23024        -2.58818
O         69.54108        58.76488         0.96113
H         70.41680        58.45850         1.27806
O         64.11380        48.44221        -1.20975
H         63.33137        49.02163        -1.33706
O         69.00503        48.19838        -3.30849
H         68.49388        47.35933        -3.41463
O         43.41572        47.60160         0.59158
H         43.00440        48.49979         0.67424
O         68.24278        59.34926        -2.40768
H         67.41249        59.77061        -2.71287
O         69.57901        38.95589        -3.15252
H         69.35019        39.82697        -3.54222
O         57.19163        63.34836         3.66911
H         57.34710        62.45903         4.11102
O         55.02927        41.31213         4.67651
H         55.81847        40.75013         4.82960
O         55.24543        44.32282         1.06547
H         54.54284        44.84343         0.61872
O         58.33764        39.54112         0.29189
H         59.11135        39.11291        -0.13370
O         69.64821        53.84764         0.62399
H         69.84212        54.64507         1.15930
O         42.27915        49.95926        -0.33803
H         41.34652        49.75682        -0.57086
O         61.68742        43.61192         3.93901
H         62.60628        43.27261         3.99711
O         45.87014        55.41352         0.58904
H         45.69812        54.63506         1.15921
O         53.47701        50.92086         3.74608
H         54.15863        51.50636         4.14347
O         60.11616        53.83752         3.27475
H         60.86793        53.34889         3.72936
O         50.95611        44.33770         4.35137
H         51.68640        43.96428         4.88972
H         38.97228        48.33466        -4.45557
H         37.67936        49.27653        -6.31837
H         39.81635        53.01608        -6.14706
H         37.90910        51.69405        -6.94029
H         40.54828        47.49192        -3.59914
H         40.96090        54.14240        -5.02191
H         42.36682        46.42241        -2.35563
H         42.55343        55.54780        -3.82337
H         45.92997        44.60187        -0.56128
H         44.02665        45.63092        -1.71332
H         45.72702        57.93642        -2.25633
H         43.73055        56.66500        -2.76802
H         46.68602        43.93148         1.64319
H         46.60332        58.90125        -0.69072
H         48.68750        42.84921         2.58682
H         47.92344        60.09000         1.07229
H         52.42324        40.68133         3.26802
H         50.32372        41.86478         3.07073
H         52.43476        62.83105         1.99607
H         50.28535        61.62169         2.36420
H         53.97501        39.81836         2.35198
H         54.10957        63.65464         1.16313
H         56.01856        38.65366         1.72707
H         56.25566        64.77657         1.35337
H         59.74972        36.22268         2.12461
H         57.66364        37.47650         2.28206
H         59.97304        66.89044         1.87277
H         57.93656        65.66244         2.47639
H         61.48069        35.10759         1.94087
H         61.39782        67.83196         1.04229
H         63.23575        33.98994         0.73459
H         63.45303        69.06510         0.61388
H         66.46506        31.95658        -1.38606
H         64.55411        33.16194        -0.44416
H         67.18398        71.22881        -0.03640
H         65.05141        70.02423        -0.00631
H         67.30239        32.02629        -3.32637
H         68.80078        72.17287        -0.56893
H         71.23825        30.38888        -3.98160
H         68.80539        30.50859        -4.56175
H         72.15175        31.89457        -2.19352
H         72.73425        35.20995        -1.33741
H         72.59651        37.62760        -1.87025
H         72.35559        39.46151        -2.69899
H         72.47271        41.86384        -2.52604
H         72.49026        43.84435        -2.51921
H         72.30275        46.22539        -2.87742
H         71.85072        48.27599        -3.55750
H         72.38126        50.50191        -2.76465
H         72.83861        52.35778        -1.27198
H         72.83645        54.82353        -1.59999
H         72.80662        56.72576        -1.63138
H         72.82006        59.15404        -1.64110
H         72.85173        61.09688        -1.44560
H         72.82566        63.53143        -1.28192
H         73.02462        65.30980        -0.38732
H         73.04912        67.74590        -0.44930
H         73.03870        69.58371        -0.93133
H         73.07454        72.03924        -1.09730
H         70.94767        73.34716        -0.90164
