         267
 CSIRO Nanostructure Databank - Neutral Graphene Oxide Data Set
C        -10.89472         0.55033        -1.55485
C         -9.75885         1.32535        -1.04201
C         -8.57833         0.61885        -0.69644
C         -7.44766         1.35291        -0.06813
C         -6.21150         0.64622         0.42030
C         -4.88942         1.41252         0.54195
C         -3.58796         0.63831         0.55045
C         -2.27428         1.44904         0.51659
C         -1.09618         0.64963        -0.06843
C          0.21490         1.34734        -0.06093
C          1.40626         0.67695         0.52801
C          2.50145         1.41425         0.90478
C          3.66435         0.80598         1.60915
C          4.86187         1.66879         1.77017
C          6.58850         0.56939         1.08515
C          7.39845         1.48591         0.35297
C          7.98556         0.97455        -0.94963
C          9.32723         1.64277        -1.20491
C         10.34709         0.93540        -1.96677
C         -9.85343         2.70477        -0.88996
C         -8.77016         3.49347        -0.18927
C         -7.39082         2.81479        -0.48117
C         -6.23716         3.62883         0.17730
C         -4.87193         2.90300         0.29209
C         -3.60548         3.59686        -0.13860
C         -2.34315         2.86979        -0.02942
C         -1.14448         3.53367        -0.14156
C          0.16909         2.83759        -0.12451
C          1.45485         3.57298        -0.02013
C          2.73129         2.80954         0.31748
C          3.74050         3.67272         1.06482
C          4.99600         2.96205         1.40581
C          6.34311         3.62271         1.31018
C          7.43440         2.86245         0.60553
C          8.51627         3.62918         0.01385
C          9.52966         2.90948        -0.74364
C         -8.75516         4.98409        -0.62567
C         -7.46387         5.75710        -0.36765
C         -6.19733         4.97426        -0.52421
C         -4.89980         5.66961        -0.68944
C         -3.62205         4.92409        -0.51959
C         -2.38171         5.66648        -0.86603
C         -1.08761         4.94728        -0.57548
C          0.10757         5.74231        -0.14004
C          1.38169         5.05200         0.20589
C          2.68637         5.79912         0.05621
C          3.73852         5.15827         0.96171
C          5.04344         5.90350         1.11873
C          6.34314         5.12831         1.16223
C          7.54212         5.82502         0.61407
C          8.64049         4.99843         0.18978
C         -7.43578         7.10590        -0.30117
C         -6.19164         7.91405        -0.63324
C         -4.89240         7.14147        -0.43765
C         -3.61963         7.89806        -0.51351
C         -2.41135         7.20161        -1.10176
C         -1.10041         7.94632        -0.76010
C          0.15859         7.21299        -0.41723
C          1.35848         7.94279         0.08451
C          2.52709         7.27346         0.27583
C          3.81130         8.04912         0.13863
C          5.06328         7.31733         0.62096
C          6.34985         8.00626         0.19892
C          7.58972         7.19562         0.49828
C         -6.06808         9.26129         0.04186
C         -4.91273         9.94294         0.02643
C         -3.68738         9.41567        -0.69459
C         -2.37827        10.04309        -0.26868
C         -1.16289         9.39162        -0.37057
C          0.06075        10.06110        -0.05856
C          1.31661         9.41619         0.12576
C          2.48293        10.13287         0.40031
C          3.72765         9.39974         0.86090
C          5.07341        10.10597         0.77684
C          6.24943         9.46686         0.61735
C        -10.85883        -0.78140        -1.73841
C         -9.61216        -1.62387        -1.59486
C         -8.43232        -0.79375        -1.07057
C         -7.25402        -1.54342        -0.53703
C         -6.18206        -0.86162         0.28093
C         -4.89241        -1.61116         0.29503
C         -3.60095        -0.85881         0.43737
C         -2.36810        -1.59409         0.01502
C         -1.08066        -0.84990        -0.04375
C          0.16676        -1.57869         0.24199
C          1.30762        -0.78485         0.78812
C          2.55894        -1.52155         1.19549
C          3.80514        -0.72403         1.56678
C          5.15751        -1.43012         1.40955
C          6.27758        -0.72104         0.71554
C          7.15859        -1.41275        -0.18669
C          8.02366        -0.59959        -1.15354
C          9.44955        -1.19198        -1.10321
C         10.40001        -0.41186        -1.97354
C         -9.84665        -2.85543        -0.68181
C         -8.60627        -3.71969        -0.50756
C         -7.32586        -3.02465        -0.36870
C         -6.16141        -3.69724        -0.13115
C         -4.85730        -2.95093        -0.43690
C         -3.57137        -3.75270        -0.20301
C         -2.31004        -3.05600         0.15738
C         -1.09099        -3.70367         0.16596
C          0.16235        -2.95840         0.29474
C          1.48077        -3.73879         0.20012
C          2.79230        -2.89766         0.58382
C          3.85729        -3.68033         1.45819
C          5.18502        -2.92362         1.33264
C          6.40386        -3.60508         0.74367
C          7.30530        -2.78075        -0.10677
C          8.35284        -3.44678        -0.89334
C          9.36685        -2.65445        -1.44878
C         -8.66346        -5.07838        -0.45582
C         -7.55489        -5.88733         0.19114
C         -6.20560        -5.14089         0.18904
C         -4.92284        -5.91125         0.06190
C         -3.60386        -5.23266        -0.08284
C         -2.39298        -5.87524         0.54132
C         -1.08808        -5.20320         0.17302
C          0.16731        -5.93368         0.53086
C          1.38877        -5.12841         0.85274
C          2.64176        -5.86319         1.19552
C          3.92167        -5.10655         0.86809
C          5.21310        -5.89093         0.83513
C          6.46737        -5.11094         0.63846
C          7.64114        -5.77278        -0.10427
C          8.37614        -4.84338        -1.02953
C         -7.43298        -7.37908        -0.13046
C         -6.24792        -8.04772        -0.24899
C         -5.02365        -7.26803        -0.54806
C         -3.60782        -8.18156         1.22871
C         -2.37873        -7.29397         1.06454
C         -1.08139        -8.02041         1.03842
C          0.09850        -7.34368         1.00830
C          1.36141        -8.15421         1.28287
C          2.68323        -7.36606         1.22461
C          3.96704        -8.05992         0.84297
C          5.15772        -7.24330         0.47228
C          6.21237        -7.83402        -0.31860
C          7.29694        -7.09602        -0.72280
C         -6.03834        -9.49634        -0.21016
C         -4.84162       -10.09948         0.04361
C         -3.58021        -9.48252         0.48780
C         -2.37241       -10.09663         0.38086
C         -1.10025        -9.55275         1.01593
C          0.14371       -10.03026         0.27203
C          1.31414        -9.37267         0.37090
C          2.54726        -9.74344        -0.42198
C          3.85135        -9.52976         0.41211
C          5.02773        -9.99766        -0.40453
C          6.06525        -9.22030        -0.75731
O          5.54462        -2.22498         2.57332
O         -4.50093        -7.89802         2.00842
O          4.07110        -5.03079        -0.55852
O          7.01093        -4.42081         1.81698
O          5.00993         7.02610         2.04496
O          1.52639        -1.29829         2.16729
O         -4.10350         7.42900         0.77340
O         -3.33543        -4.65063        -1.37783
O          6.67085         4.48279         2.44226
O         -3.51930        -0.23141         1.74477
O          1.78264        -5.28558         2.23337
O         -7.23181         1.10403         1.36150
O         -5.75316        -1.58985         1.46374
O         -5.47035        -5.60654         1.37393
O         -1.86609         1.65829         1.89740
H         -2.42641         1.09718         2.48239
O         -1.79858        -1.24042        -1.28574
O          3.49503         9.12917         2.26869
H          3.58120         9.96806         2.76612
O         -1.56320         5.08485        -1.94348
O         -2.43878        -6.13182         1.96717
O         -0.43715         0.96485        -1.33367
O         -1.07463       -10.06890         2.36569
H         -0.23816        -9.73286         2.77632
O         -4.79071         2.35185         1.65593
O          6.41035         8.04168        -1.28007
H          7.22645         8.52447        -1.53105
O          0.97374         3.22614        -1.34592
O         -3.84792         9.72734        -2.10077
H         -3.30803         9.07983        -2.61600
O         -5.63471         5.14768        -1.86708
O         -7.16833         2.79796        -1.89921
H         -7.56912         3.60759        -2.29777
O          5.99068         1.01924         2.27110
O         -0.29480        -5.83998        -0.86578
O         -7.21450        -1.02664        -1.90909
O         -4.17904        -7.63460        -1.35936
O          3.19119         4.50080         2.14076
O         -6.31143         8.13216        -2.06853
H         -6.15541         7.26833        -2.51172
O          0.47736         5.46563         1.25819
O          3.14599         5.59905        -1.30982
H          3.34455         6.49135        -1.69632
O          3.61177        -7.85184         2.25582
O          1.24992        -8.65548         2.64624
H          1.45658        -7.91259         3.25421
O         -6.60751         3.99485         1.52698
H         -6.20893         3.31057         2.12499
O          3.51110        -0.02542         2.80105
O          8.68236        -6.07228         0.88758
H          8.54864        -5.42587         1.62526
O         -7.98953        -5.92313         1.58691
H         -7.18439        -6.11202         2.12588
O         -0.10660         7.62613        -1.79855
O         -9.11594         3.41622         1.20180
H         -8.31462         3.66711         1.72587
O          1.56616        -4.03894        -1.20267
H          1.83308        -3.22092        -1.67648
O          7.53754        -0.87928        -2.47496
H          7.07204        -0.05759        -2.77889
O        -10.20921        -2.35759         0.60950
H        -10.24541        -3.10666         1.23945
O          3.84887         8.27522        -1.29599
H          4.77544         8.49008        -1.57054
O          7.06208         1.50460        -1.95233
H          6.13192         1.52927        -1.57890
O          9.89564        -1.08108         0.27994
H         10.78729        -1.48082         0.35122
O         -8.92198         4.98115        -2.05877
H         -8.85008         5.90259        -2.38529
O         -4.87573        -2.60945        -1.83901
H         -4.42053        -3.33244        -2.32991
O          3.45539        -2.56016        -0.64873
H          3.80100        -3.43264        -1.01003
O          3.48469        -3.69028         2.82418
H          4.07503        -3.06008         3.30409
O          4.41684         1.51093        -0.92724
O         -9.29726        -2.13504        -2.90438
H         -8.36234        -1.88504        -3.09956
O          3.39736         2.58647        -1.03108
H          2.69381         2.24358        -1.64465
O          2.59944        -8.96233        -1.62331
H          2.49430        -8.01209        -1.41001
O          3.75011       -10.36098         1.58033
H          3.48092        -9.77414         2.32722
O         -2.58903         7.36366        -2.53170
H         -1.79190         6.96579        -2.95557
H         11.17766        -0.94455        -2.54240
H         11.09897         1.53046        -2.50847
H         10.47390         3.43086        -0.96561
H          9.53286         5.50288        -0.21283
H          8.53689         7.64466         0.14983
H          7.18603        10.04753         0.66042
H          5.08807        11.18532         1.00674
H          2.43253        11.23026         0.48892
H          0.01290        11.14967         0.10038
H         -2.38241        11.10654         0.01815
H         -4.84672        10.92941         0.51087
H         -6.95419         9.67748         0.54505
H         -8.38642         7.66341        -0.25736
H         -9.62354         5.51928        -0.15183
H        -10.78840         3.21513        -1.16569
H        -11.82785         1.10249        -1.74432
H        -11.75612        -1.30352        -2.10354
H        -10.68321        -3.47888        -1.10619
H         -9.62837        -5.58661        -0.61180
H         -8.35467        -7.96080         0.03946
H         -6.90940       -10.13902        -0.41518
H         -4.81309       -11.19897        -0.03765
H         -2.30497       -11.08556        -0.10282
H          0.06600       -10.93221        -0.35560
H          2.48797       -10.81504        -0.73079
H          4.99828       -11.04842        -0.73014
H          6.87750        -9.63691        -1.37222
H          8.05019        -7.55308        -1.38188
H          9.18019        -5.29149        -1.63592
H         10.16145        -3.12806        -2.04797
