         314
 CSIRO Nanostructure Databank - Neutral Graphene Oxide Data Set
C         30.61335        57.05950        -1.01445
C         30.54438        58.47910        -0.87994
C         29.30772        59.14105        -0.76582
C         30.40271        61.29361        -0.47604
C         29.24830        60.53285        -0.58100
C         33.25253        52.84418        -1.36469
C         33.18137        54.30181        -1.26938
C         31.93904        54.97946        -1.27249
C         33.05712        57.21088        -1.28488
C         31.83198        56.38878        -1.17166
C         33.00983        58.64347        -0.92524
C         31.75618        59.26238        -0.79725
C         32.87696        61.42003        -0.41795
C         31.68740        60.67975        -0.56242
C         35.71153        48.58365        -1.27630
C         35.75018        49.94051        -1.37391
C         34.53764        50.72138        -1.88333
C         35.70476        52.93615        -1.34065
C         34.43719        52.17339        -1.43157
C         35.63772        54.36955        -0.95986
C         34.38277        55.03409        -1.13453
C         35.66708        57.25790        -0.98210
C         34.38326        56.49922        -1.27408
C         35.46221        58.70843        -0.56320
C         34.20715        59.37349        -0.69310
C         35.34187        61.51486        -0.17385
C         34.14195        60.78910        -0.42563
C         37.69416        43.95614        -0.14466
C         37.33824        45.35859        -0.07387
C         36.62974        46.21019        -0.87632
C         38.07999        48.45410        -0.33057
C         36.86175        47.70982        -0.90237
C         38.17225        49.96315        -0.50948
C         37.01766        50.68471        -1.15117
C         38.18977        52.89933        -0.57188
C         36.99923        52.18975        -1.15661
C         38.04162        54.41463        -0.29873
C         36.74075        55.06032        -0.48911
C         37.80449        57.24318         0.28691
C         36.53469        56.48023         0.01876
C         37.72526        58.67986         0.41794
C         36.56539        59.41719        -0.09847
C         37.81336        61.54350         0.21370
C         36.56253        60.85177         0.01772
C         40.29808        39.94535         0.98273
C         40.09406        41.34604         1.04581
C         38.96911        42.00261         0.48961
C         40.20891        44.21583         0.48290
C         38.88342        43.41985         0.38470
C         40.20112        45.66496         0.93049
C         39.09619        46.47318         0.86142
C         40.27129        48.59955         0.85894
C         39.11983        47.87404         0.55814
C         40.29412        50.01915         0.78523
C         39.19727        50.74166         0.25797
C         40.22437        52.93342         0.90224
C         39.16110        52.15158         0.24286
C         40.30846        54.40373         0.78640
C         39.00824        55.06110         0.63343
C         40.22272        57.28601         1.07263
C         38.94313        56.56877         0.87189
C         40.25624        58.68604         0.90334
C         38.99656        59.44674         0.79292
C         40.29573        61.52279         0.45772
C         39.02275        60.88680         0.45695
C         42.57636        35.86953        -0.29630
C         42.69069        37.11351         0.31460
C         41.50801        37.87865         0.58703
C         42.84969        39.77506         1.31107
C         41.52622        39.19614         1.06202
C         42.98522        41.09199         1.78267
C         41.10836        42.21544         1.60478
C         42.62875        44.16855         1.45583
C         41.32570        43.51356         1.24689
C         42.72716        45.55357         1.40597
C         41.51946        46.33414         1.00847
C         42.70333        48.49299         1.74879
C         41.51249        47.82252         1.13770
C         42.75320        49.90406         1.32092
C         41.45856        50.66889         1.50276
C         42.69875        53.02199         1.25181
C         41.48681        52.20166         1.36295
C         42.66966        54.42263         1.41979
C         41.41688        55.11640         1.23714
C         42.68009        57.26021         1.29982
C         41.43303        56.56673         1.25036
C         42.69166        58.65803         1.06957
C         41.49032        59.37357         0.86844
C         42.74587        61.50236         0.67277
C         41.49832        60.82130         0.66016
C         44.83693        33.40706        -2.06629
C         43.68551        33.94200        -1.55116
C         45.14439        35.68357        -0.34440
C         43.73553        35.02973        -0.57410
C         45.16568        37.07270         0.12252
C         44.00457        37.72636         0.50571
C         45.26449        39.85172         0.92320
C         44.04623        39.11544         0.92486
C         45.25910        41.25249         1.06871
C         44.06873        41.91523         1.45168
C         45.17155        44.18318         1.09253
C         43.90193        43.39085         1.28884
C         45.19420        45.62230         1.40266
C         43.99217        46.27562         1.53333
C         45.26529        48.50854         1.65737
C         43.99623        47.73820         1.82202
C         45.23751        49.83198         1.19306
C         43.93043        50.33994         0.81333
C         45.16355        52.95379         1.21967
C         43.93688        52.48971         0.80154
C         45.14100        54.33295         1.73322
C         43.90196        55.12493         1.55510
C         45.19700        57.22062         1.51030
C         43.93606        56.53391         1.48502
C         45.18372        58.71313         1.48220
C         44.00410        59.32289         0.73610
C         45.19684        61.50762         0.77530
C         43.96837        60.82916         0.81116
C         46.11772        33.99932        -1.86337
C         47.48910        35.93632        -1.18818
C         46.27778        35.17638        -1.13909
C         47.62797        37.17109        -0.56101
C         46.49074        37.71887         0.22084
C         47.71962        39.97011         0.23906
C         46.54832        39.16310         0.66191
C         47.70001        41.32685         0.36169
C         46.53375        42.00614         0.96864
C         47.59579        44.33084         0.42576
C         46.50175        43.49494         1.08000
C         47.73822        45.68984         1.09492
C         46.51295        46.28128         1.63294
C         47.80084        48.57523         1.61104
C         46.52840        47.81587         1.85851
C         47.71052        50.08146         1.37475
C         46.38385        50.72009         1.18107
C         47.61566        52.87770         1.01981
C         46.37266        52.14745         1.11887
C         47.64682        54.31904         1.15970
C         46.47770        55.07048         1.65911
C         47.67839        57.21273         1.40440
C         46.41891        56.53226         1.49568
C         47.72571        58.65873         1.58153
C         46.47229        59.48744         1.56102
C         47.59279        61.65085         0.67548
C         46.45674        60.89822         1.01892
C         48.82643        37.93647        -0.65022
C         50.12032        40.02978        -0.36429
C         48.90681        39.28541        -0.27552
C         50.15794        41.42140        -0.17960
C         48.83353        42.15627        -0.20400
C         50.18039        44.26910         0.48710
C         48.88537        43.53159         0.43809
C         50.15252        45.74519         0.55914
C         48.93725        46.42553         0.94902
C         50.12117        48.60187         0.70022
C         48.98396        47.85738         1.11279
C         50.08671        50.04176         0.56322
C         48.88650        50.77682         0.81209
C         49.92169        52.90159        -0.02742
C         48.80612        52.17245         0.68023
C         49.97840        54.39948         0.29197
C         48.81464        55.05831         0.94911
C         50.19448        57.10409         1.46304
C         48.86438        56.46122         1.25903
C         50.25121        58.59255         1.65992
C         48.94127        59.23534         1.82248
C         50.10607        61.52830         0.38964
C         48.91897        61.30000         1.05874
C         51.35271        42.16662        -0.19818
C         52.55414        44.32574        -0.16249
C         51.39659        43.56937         0.01178
C         52.55601        45.74395        -0.01489
C         51.32674        46.45381         0.31978
C         52.50302        48.60321         0.03565
C         51.32467        47.89190         0.35661
C         52.46131        50.01541        -0.08819
C         51.26899        50.74426         0.13826
C         52.45134        52.90242        -0.09198
C         51.26552        52.19211         0.06389
C         52.54266        54.33637         0.04522
C         51.29068        55.10276         0.26145
C         52.59097        57.23429         0.55069
C         51.43049        56.42216         0.95317
C         52.60439        58.60502         0.60630
C         51.45277        59.40390         1.13636
C         52.48688        61.38743         0.06133
C         51.34819        60.81137         0.59458
C         53.73024        46.47046        -0.22520
C         54.94458        48.58627        -0.43596
C         53.74634        47.88955        -0.21580
C         54.97204        49.99935        -0.55691
C         53.66880        50.69697        -0.57488
C         54.96938        52.90472        -0.46326
C         53.67836        52.21694        -0.52841
C         54.99897        54.29894        -0.22045
C         53.74469        55.01207        -0.01589
C         55.04188        57.17367         0.27268
C         53.74023        56.52231        -0.14353
C         55.05044        58.65044         0.11950
C         53.81404        59.32633         0.21384
C         54.95175        61.41519        -0.32345
C         53.76320        60.72545         0.00407
C         56.14292        50.73204        -0.72464
C         57.38371        52.88100        -0.80445
C         56.17138        52.16965        -0.68738
C         57.43090        54.28249        -0.62082
C         56.23904        54.97631        -0.25389
C         57.59584        57.14550        -0.06938
C         56.31630        56.39473         0.15086
C         57.54797        58.65596        -0.19742
C         56.23950        59.35964        -0.13454
C         57.44409        61.54418        -0.63376
C         56.18005        60.75214        -0.38203
C         58.63600        55.01819        -0.85434
C         59.80898        57.14583        -1.20129
C         58.71376        56.41540        -0.71787
C         59.79180        58.57000        -1.32178
C         58.65687        59.32868        -0.90805
C         59.67892        61.34775        -1.77890
C         58.59939        60.71178        -1.14774
C         60.86902        59.24642        -1.95052
C         60.80756        60.61508        -2.17285
O         43.89816        51.41456        -0.07722
O         38.17947        50.27246        -1.94183
O         37.83488        45.94898         1.10545
O         43.19381        48.07393         3.03993
O         38.74464        53.90386        -1.47532
O         45.92076        54.59023         2.92986
O         51.08432        56.36670         2.37359
O         45.58558        59.33305         2.73531
O         46.86558        42.73130         2.24483
O         38.03814        59.10542         1.82814
O         46.61956        46.88681         2.96568
O         40.50830        52.68211         2.33862
O         53.46770        51.48269        -1.79422
O         36.61411        52.68093        -2.47845
O         48.01815        49.52833         2.70662
O         44.57107        34.74245         0.59576
O         49.58946        43.59995         1.68670
O         38.09493        47.87276        -1.68676
O         44.40431        43.78055        -0.09202
O         41.95659        41.63341         2.55020
O         48.99198        60.55474         2.25308
O         51.25178        59.14410         2.55930
O         44.14911        58.99987        -0.64188
O         41.89600        47.17944        -0.15949
O         57.98316        57.99630         1.04736
O         46.86018        38.08747         1.60032
O         33.79345        56.94627        -2.54621
O         38.48608        55.56692         1.89756
O         50.40893        55.17055        -0.91699
O         55.67656        56.64189         1.45971
O         57.84701        62.17372         0.60053
H         58.01605        61.46795         1.25901
O         48.53018        42.36931        -1.61522
H         48.58014        41.50141        -2.06794
O         49.55987        52.78375        -1.43827
H         49.98889        53.54221        -1.89971
O         40.60785        44.28536        -0.92138
H         41.36431        44.90751        -0.99755
O         53.61800        56.79002        -1.57673
H         52.79147        56.36780        -1.89548
O         34.63954        50.75846        -3.31745
H         35.44358        51.28626        -3.53295
O         47.20320        44.57524        -0.94729
H         46.23038        44.47362        -1.03494
O         36.42715        57.30371        -2.21253
H         35.77991        57.41679        -2.94504
O         41.19338        50.38789         2.91673
H         40.63067        51.12026         3.26234
O         35.81239        56.41551         1.28069
H         36.46245        56.13628         1.96771
H         29.67743        56.48092        -0.98512
H         28.37700        58.55855        -0.82258
H         30.33769        62.37916        -0.31467
H         28.26681        61.02165        -0.50521
H         32.30603        52.29167        -1.47188
H         31.01359        54.38390        -1.29317
H         32.81729        62.50384        -0.23776
H         34.74882        48.07619        -1.45242
H         33.59620        50.17214        -1.62871
H         35.29099        62.60882        -0.06883
H         36.95710        43.24507        -0.55563
H         36.17000        45.82128        -1.79894
H         37.82110        62.63643         0.08203
H         39.44161        39.36436         0.59887
H         38.11451        41.39762         0.14680
H         40.34131        62.60847         0.28029
H         41.58459        35.51849        -0.62062
H         40.53948        37.41967         0.33396
H         42.74460        62.60226         0.59995
H         44.76953        32.55345        -2.75606
H         42.70351        33.57249        -1.88106
H         45.19302        62.58568         0.54340
H         46.97872        33.58678        -2.40907
H         48.33054        35.53509        -1.77393
H         47.44588        62.53909         0.04059
H         49.70994        37.46300        -1.10564
H         51.06053        39.48415        -0.53934
H         50.10257        62.26571        -0.42832
H         52.30017        41.64009        -0.39457
H         53.48667        43.82921        -0.47102
H         52.42449        62.41625        -0.32473
H         54.66343        45.93178        -0.44803
H         55.88338        48.02105        -0.53495
H         54.91321        62.49947        -0.50394
H         57.10245        50.19795        -0.79382
H         58.31138        52.33749        -1.03517
H         57.22971        62.37487        -1.35401
H         59.50846        54.47673        -1.25060
H         60.66501        56.59828        -1.62459
H         59.64300        62.43338        -1.94698
H         61.75119        58.67176        -2.26702
H         61.64729        61.12986        -2.65987
