         671
 CSIRO Nanostructure Databank - Neutral Graphene Oxide Data Set
C          5.96540        32.00155         0.14098
C          5.95091        33.35409         0.27387
C          8.40677        27.75260        -0.11762
C          8.32782        29.05237         0.43192
C          6.98829        29.72890         0.51337
C          8.20641        31.81934         1.13584
C          7.11107        31.22827         0.57278
C          8.15377        33.26336         1.56212
C          7.08057        34.04616         0.83940
C          8.35733        36.10276         1.17824
C          7.16021        35.40612         0.78503
C          8.39144        37.47068         1.09111
C         10.85103        23.48150        -0.34319
C         10.85239        24.83638        -0.34813
C          9.61913        25.63915        -0.67997
C         10.72636        27.59065         0.56989
C          9.58107        27.01852        -0.05502
C         10.65347        28.91690         1.12433
C          9.44011        29.64489         1.02826
C         10.60362        31.69566         2.10902
C          9.26746        30.95260         1.78229
C         10.76946        33.13156         1.57317
C          9.50373        33.95762         1.55667
C         10.81281        36.05407         1.68768
C          9.56327        35.33050         1.49403
C         10.81129        37.44636         1.64224
C          9.59687        38.20580         1.35579
C         10.79150        40.38696         1.70578
C          9.58967        39.57481         1.33526
C         10.85952        41.69948         0.97010
C         13.22829        19.08183        -0.63896
C         13.24468        20.55991        -0.32219
C         12.06223        21.30264        -0.36825
C         13.31407        23.37101        -0.03364
C         12.07734        22.70478        -0.23550
C         13.33873        24.80504         0.13522
C         12.13396        25.62507        -0.28138
C         13.03768        27.37324         1.28254
C         11.96133        26.86972         0.57026
C         12.81176        28.54977         2.05122
C         11.76263        29.43738         1.87429
C         13.22336        31.65629         2.49196
C         11.86013        30.88275         2.33023
C         13.23229        33.17985         2.39688
C         11.98501        33.90946         2.05797
C         13.28735        36.00998         2.20507
C         12.03084        35.29249         1.97684
C         13.22979        37.48690         2.28104
C         12.02534        38.19467         1.83291
C         13.32319        40.23804         1.48592
C         12.06284        39.57281         1.66937
C         13.34438        41.52555         0.69280
C         12.05098        42.31317         0.66764
C         13.37264        44.30530         0.01427
C         12.12748        43.62621         0.12152
C         13.51881        45.50914        -0.78665
C         15.74220        14.83803        -0.96069
C         15.66428        16.19417        -0.51680
C         14.50335        16.92172        -0.59593
C         15.73314        19.07125        -0.20906
C         14.42113        18.31970        -0.03999
C         15.71793        20.46052        -0.19166
C         14.48452        21.21725        -0.12587
C         15.78403        23.32439         0.21265
C         14.52038        22.62915         0.04238
C         15.77661        24.75405         0.51213
C         14.49186        25.44073         0.53641
C         15.69857        27.62899         1.11424
C         14.41076        26.88214         0.90576
C         15.79824        28.96620         1.76088
C         14.70864        29.64523         2.30694
C         15.73714        31.78727         1.98101
C         14.56143        31.03568         2.25247
C         15.71242        33.22377         1.99299
C         14.52301        33.90385         2.17272
C         15.81334        36.05063         2.37381
C         14.51556        35.35481         2.22836
C         15.82083        37.53304         2.56358
C         14.52904        38.27701         2.34963
C         15.81994        40.21090         1.26486
C         14.52976        39.61545         1.73368
C         15.86339        41.68299         0.82836
C         14.52328        42.36323         1.17583
C         15.73657        44.50843         0.75728
C         14.51646        43.74073         0.59363
C         15.82617        45.82678         0.01350
C         14.71868        46.14725        -0.90029
C         16.09676        48.10054        -1.66304
C         15.03906        47.08793        -2.02731
C         16.06356        49.37011        -2.21915
C         18.23260        10.85747        -2.43935
C         18.21334        12.13655        -1.76796
C         16.97878        12.77959        -1.46204
C         18.14082        14.62841        -0.27946
C         16.91994        14.07595        -0.91308
C         18.17125        16.08100         0.11362
C         16.88800        16.86571         0.01370
C         18.20612        18.97595        -0.02543
C         16.96417        18.34192        -0.12314
C         18.30142        20.43176        -0.22260
C         16.97195        21.21196        -0.30403
C         18.27761        23.33213         0.04110
C         16.97658        22.63972         0.03837
C         18.27142        24.81505         0.38546
C         16.96500        25.44615         0.67016
C         18.20988        27.45283         1.55014
C         17.02535        26.95538         0.73808
C         18.22359        28.92302         1.83975
C         16.99231        29.70536         1.68789
C         18.25613        31.81220         1.84932
C         16.98706        31.10082         1.84531
C         18.26647        33.19977         1.84284
C         16.97557        33.97120         1.61940
C         18.33262        36.01070         2.33593
C         16.99780        35.37303         2.18286
C         18.39631        37.51878         2.41441
C         17.11429        38.28670         2.41581
C         18.40036        40.40698         1.50607
C         17.11656        39.56183         1.62013
C         18.14784        41.79963         2.14896
C         17.02858        42.50980         1.40444
C         18.15265        44.76135         1.51866
C         16.99295        43.85585         1.21698
C         18.14483        46.20503         0.94336
C         17.23804        46.29630        -0.30324
C         18.33545        48.51399        -0.75442
C         17.21233        47.68970        -0.88733
C         18.33399        49.79417        -1.38099
C         17.17413        50.24538        -2.08668
C         18.31202        52.31901        -2.71760
C         17.16860        51.51387        -2.71939
C         18.32488        53.60815        -3.36048
C         20.61950         6.94114        -4.25227
C         20.62016         8.25088        -3.66219
C         19.42422         8.91685        -3.34291
C         20.73358        10.99832        -2.86335
C         19.40527        10.25064        -2.84097
C         20.71786        12.40683        -2.17995
C         19.42886        12.76933        -1.47750
C         20.72146        14.71141        -0.48495
C         19.45876        13.92905        -0.57967
C         20.68816        16.12488        -0.10556
C         19.45181        16.81716         0.09690
C         20.64961        18.96094         0.34682
C         19.43371        18.24188         0.18320
C         20.69891        20.37335         0.39991
C         19.53375        21.14745         0.16755
C         20.71379        23.28913         0.51718
C         19.53489        22.57567         0.25445
C         20.74303        24.70099         0.84239
C         19.52305        25.43436         0.88686
C         20.70059        27.41979         1.73682
C         19.51222        26.76068         1.36465
C         20.68463        28.83606         2.18107
C         19.47748        29.64656         1.97065
C         20.76796        31.71487         1.86927
C         19.49758        31.03297         1.92763
C         20.75114        33.14498         1.53150
C         19.51707        33.92210         1.77526
C         20.84161        36.03427         1.88485
C         19.57602        35.29788         1.93549
C         20.82266        37.49784         1.99180
C         19.64837        38.22646         2.06178
C         20.82829        40.40051         2.14182
C         19.64284        39.67587         1.99187
C         20.76938        41.89181         2.32774
C         19.45713        42.61775         2.26100
C         20.73507        44.90068         1.83791
C         19.42778        44.11277         1.97766
C         20.73860        46.31669         1.30555
C         19.51409        46.82632         0.63502
C         20.76523        48.77188        -0.25058
C         19.53677        48.00947        -0.08107
C         20.73738        50.08266        -0.81062
C         19.49989        50.62283        -1.35795
C         20.64817        52.74605        -1.97617
C         19.48230        51.84597        -2.03883
C         20.80129        53.73474        -3.11125
C         19.48424        54.36125        -3.50970
C         20.70960        56.33092        -4.35214
C         19.50846        55.61471        -4.16106
C         20.72905        57.54192        -5.06690
C         23.03721         4.42212        -5.56981
C         21.82961         5.01821        -5.20394
C         23.03803         7.17606        -4.78175
C         21.79014         6.34452        -4.69964
C         23.08682         8.30202        -3.79281
C         21.88509         8.85245        -3.32431
C         23.16354        10.68938        -2.11249
C         21.81989        10.01458        -2.33684
C         23.18001        12.11044        -1.71636
C         21.88037        12.62737        -1.16533
C         23.12644        14.92066        -1.06775
C         21.89681        14.09664        -0.80098
C         23.16063        16.18250        -0.23921
C         21.90135        16.80096         0.07365
C         23.17923        18.89087         0.34669
C         21.88117        18.16712         0.72371
C         23.16006        20.36283         0.66067
C         21.98351        21.05822         0.56688
C         23.26082        23.29082         0.62502
C         21.98306        22.54201         0.44275
C         23.23667        24.70213         1.08578
C         21.95402        25.36791         1.21792
C         23.18012        27.43621         1.88235
C         21.94382        26.73774         1.63018
C         23.24612        28.82622         2.06725
C         21.99717        29.59131         2.27835
C         23.24192        31.74286         2.00438
C         21.98411        31.04731         2.01862
C         23.30869        33.12001         1.81505
C         22.07316        33.87820         1.48900
C         23.35018        36.03275         1.39698
C         22.03625        35.34088         1.67719
C         23.31401        37.41053         2.00919
C         22.09600        38.27221         1.75981
C         23.26593        40.51881         2.26403
C         22.08731        39.73122         2.26186
C         23.26737        41.90455         1.86180
C         22.04507        42.68014         2.13593
C         23.22184        44.70086         1.09232
C         22.05514        44.15986         1.84372
C         23.23158        46.06738         0.66087
C         22.09660        47.01318         1.05391
C         23.20145        48.82466        -0.25907
C         22.00740        48.20418         0.12029
C         23.18808        50.13786        -0.80750
C         21.94106        50.81260        -0.93458
C         23.18781        52.97501        -1.54032
C         21.90003        52.23472        -1.32473
C         23.12973        54.40779        -2.08645
C         21.94277        54.70595        -2.97130
C         23.18109        56.58886        -3.95686
C         21.94577        55.85485        -3.72856
C         23.17764        57.71674        -4.78335
C         21.93372        58.24389        -5.30181
C         23.16556        60.06704        -6.37516
C         21.95562        59.42655        -6.07235
C         24.26239         5.07867        -5.39549
C         25.52860         7.02861        -4.59227
C         24.32022         6.40073        -4.89379
C         25.57377         8.31511        -3.96324
C         24.33806         8.88801        -3.51585
C         25.57126        11.02315        -2.97616
C         24.41141        10.10026        -2.67742
C         25.63150        12.21460        -2.05569
C         24.38540        12.80727        -1.63453
C         25.62948        14.73930        -0.79123
C         24.41861        14.13703        -1.07597
C         25.63581        16.03921        -0.08968
C         24.36819        16.76678         0.07707
C         25.71487        18.86110         0.62288
C         24.42137        18.08522         0.81771
C         25.67474        20.28544         1.13039
C         24.49373        21.06113         0.51379
C         25.71845        23.17385         1.33712
C         24.44221        22.47569         1.04379
C         25.72753        24.65474         1.02159
C         24.42159        25.31533         1.39542
C         25.71018        27.41648         1.92579
C         24.43086        26.63634         2.10760
C         25.71081        28.81990         2.08961
C         24.47805        29.52360         2.15756
C         25.76536        31.70216         2.23182
C         24.46022        30.99434         2.51278
C         25.78841        33.11000         2.17347
C         24.55436        33.83504         1.96869
C         25.82488        35.90771         1.99954
C         24.59402        35.23883         1.83105
C         25.77489        37.40176         1.88373
C         24.48447        37.84395         2.51174
C         25.75583        40.48643         2.10555
C         24.56011        40.00128         2.59089
C         25.69564        41.78437         1.45383
C         24.43327        42.51647         1.42586
C         25.53996        44.40551         0.28132
C         24.41370        43.90270         0.94230
C         25.49480        45.76044        -0.40385
C         24.36079        46.62839         0.08734
C         25.64981        48.65597        -0.81708
C         24.51325        48.14077         0.04052
C         25.59018        49.96724        -1.31639
C         24.41184        50.73755        -1.25993
C         25.65364        52.80606        -2.17464
C         24.45548        52.18198        -1.57607
C         25.66395        54.13694        -2.52472
C         24.43536        54.86931        -2.71546
C         25.68748        56.57346        -4.01260
C         24.43020        56.01357        -3.50871
C         25.63724        57.75603        -4.81552
C         24.42331        58.34977        -5.16843
C         24.37827        59.53900        -5.95431
C         26.80033         8.96189        -3.68074
C         28.06122        10.91547        -2.83288
C         26.86788        10.25941        -3.11662
C         28.08938        12.23497        -2.27063
C         26.84447        12.85536        -1.82870
C         28.10055        14.84559        -1.04975
C         26.88304        14.13337        -1.16011
C         28.15698        16.18160        -0.52162
C         26.93425        16.78370         0.05530
C         28.14961        18.98204         0.23265
C         26.89551        18.25071         0.29208
C         28.16424        20.38041         0.54173
C         26.96671        21.05148         0.91075
C         28.19203        23.17526         1.04482
C         26.98496        22.43226         1.13019
C         28.21142        24.60620         1.39516
C         26.97018        25.32629         1.53913
C         28.17927        27.38512         2.20418
C         26.93001        26.67954         1.87722
C         28.18600        28.85399         2.16539
C         26.97215        29.54773         2.16649
C         28.23710        31.66901         2.36445
C         26.98166        30.98017         2.24317
C         28.26751        33.09727         2.38477
C         27.04935        33.79910         2.24930
C         28.27374        35.95515         2.35466
C         27.05158        35.23655         2.22377
C         28.25234        37.43339         2.42126
C         26.96540        38.19950         2.37742
C         28.13855        40.26253         1.60727
C         26.98556        39.68135         2.05074
C         28.18183        41.77307         1.41753
C         26.85269        42.35748         0.99735
C         28.08677        44.37828         0.20220
C         26.77102        43.53495         0.06855
C         28.00755        45.59789        -0.74951
C         26.84887        46.52009        -0.29045
C         28.02369        48.42172        -1.43856
C         26.84640        47.87263        -0.97528
C         28.13174        49.90728        -1.63793
C         26.79535        50.53016        -1.98532
C         28.15102        52.61201        -2.68233
C         26.83692        51.96043        -2.41103
C         28.17273        53.99191        -2.88515
C         26.97770        54.87563        -2.68272
C         26.89741        55.99062        -3.68507
C         29.27963        12.93620        -2.12480
C         30.49874        14.99514        -1.57034
C         29.31574        14.25982        -1.57953
C         30.56292        16.32045        -1.03166
C         29.33721        16.92238        -0.52420
C         30.58055        19.04263        -0.10625
C         29.35454        18.31870        -0.10444
C         30.60076        20.43848         0.08976
C         29.37588        21.12716         0.41525
C         30.59893        23.36160         0.41620
C         29.37518        22.51831         0.67893
C         30.72828        24.49563         1.44155
C         29.42829        25.24615         1.56582
C         30.69765        27.44355         1.73998
C         29.49059        26.64111         2.01375
C         30.67329        28.81137         1.96788
C         29.43849        29.53597         2.24366
C         30.72392        31.60988         2.85457
C         29.44641        30.92910         2.43426
C         30.72414        33.11811         2.69130
C         29.54431        33.81050         2.50788
C         30.72935        36.02824         2.47854
C         29.52353        35.28412         2.46081
C         30.69334        37.44854         2.20889
C         29.49814        38.14264         2.11921
C         30.65256        40.33867         1.55990
C         29.40716        39.46449         1.36458
C         30.58276        41.59006         0.72725
C         29.36888        42.27103         0.60066
C         30.49600        44.16087        -0.61207
C         29.30537        43.53324        -0.02030
C         30.49669        45.61760        -0.90552
C         29.32433        46.31162        -0.94616
C         30.54652        48.38547        -1.72592
C         29.25270        47.59906        -1.73602
C         30.54036        49.68804        -2.16318
C         29.25181        50.31965        -2.62424
C         29.30627        51.82038        -2.74564
C         31.76249        17.00597        -0.95840
C         33.05502        19.11023        -0.54831
C         31.87776        18.27283        -0.16469
C         33.05881        20.48982        -0.35494
C         31.83406        21.17571         0.00336
C         33.08390        23.26535         0.27755
C         31.87598        22.56861         0.27350
C         33.21262        24.63924         0.90905
C         31.90976        25.38053         1.11723
C         33.11306        27.54179         1.11431
C         31.89616        26.75140         1.28757
C         33.12567        28.90317         1.45017
C         31.90253        29.58366         1.87350
C         33.24988        31.51511         2.58241
C         31.92807        30.90527         2.25596
C         33.25580        33.01341         2.72027
C         32.01598        33.85121         3.07887
C         33.28314        36.11880         2.50273
C         32.03695        35.24715         2.35149
C         33.25883        37.53946         2.11726
C         31.94997        38.24280         2.05719
C         33.10103        40.10661         0.90391
C         31.93266        39.55267         1.37971
C         33.04981        41.41833         0.21404
C         31.87977        42.32233         0.54074
C         33.09046        44.26398        -0.55152
C         31.82354        43.48294        -0.42784
C         33.00189        45.64210        -0.88633
C         31.77628        46.31277        -1.09841
C         31.75298        47.68452        -1.41561
C         34.25316        21.25480        -0.50382
C         35.50376        23.36494        -0.25243
C         34.29488        22.61953        -0.16427
C         35.55685        24.75671         0.02096
C         34.23164        25.48491         0.15196
C         35.54146        27.54748         0.74767
C         34.33314        26.87978         0.72683
C         35.57354        28.96809         0.97880
C         34.35104        29.64562         1.35490
C         35.60844        31.73529         1.65716
C         34.41262        30.98694         1.78011
C         35.70899        33.02971         2.20425
C         34.52606        33.49787         2.89116
C         35.75875        36.17392         2.20533
C         34.54338        35.68134         2.80766
C         35.71394        37.46163         1.63442
C         34.47061        38.16942         1.56252
C         35.60686        40.10782         0.55130
C         34.38687        39.43527         0.98470
C         35.58410        41.41877         0.07873
C         34.33168        42.12855        -0.18059
C         34.28738        43.59077        -0.36335
C         36.75379        25.43982         0.08253
C         38.01517        27.63598         0.29246
C         36.84994        26.79420         0.72542
C         37.99255        29.00538         0.45355
C         36.76303        29.67739         0.82587
C         38.03577        31.84452         1.09486
C         36.71828        31.18239         0.81055
C         38.06855        33.17448         1.51445
C         36.87099        33.87475         1.97018
C         38.12081        35.99723         1.61466
C         36.90172        35.30680         2.01174
C         38.12340        37.35031         1.26712
C         36.91441        38.09724         1.15797
C         36.84919        39.40665         0.67286
C         39.19256        29.79941         0.34388
C         40.49620        31.83531         0.80654
C         39.23461        31.13599         0.72891
C         40.54086        33.14829         1.15982
C         39.33342        33.88163         1.45618
C         39.34531        35.26122         1.52352
O         20.07960        42.31882         3.55226
O         11.01197        31.33400         3.44742
O         13.70011        38.10269         3.53753
O         22.81335        23.01640        -0.73808
O         34.69170        34.62376         3.69731
O         18.53255        36.70335         3.61730
O         33.44352        41.39386        -1.16579
O         31.11521        43.30367        -1.67202
O         13.20175        32.47459         3.69346
O         17.34726        16.36303         1.31139
O         18.51690        44.76168         2.92979
O         27.49428        37.88880         3.67928
O         22.34545        43.65722         3.19490
O         13.76779        28.88855         2.99672
O         24.56047        38.88477         3.42909
O         22.85661         7.86079        -6.17775
O         21.41058        33.44237         0.23548
O         20.95887        53.11971        -0.60782
O         24.08650         9.87209        -1.26501
O         32.72938        38.30878         3.31276
O         26.55390        50.85976        -3.39538
O         14.92125        27.78965        -0.15054
O         24.84989        22.72829         2.41736
O         20.64525        46.04057         2.74827
O         24.02163        52.94760        -0.33987
O         28.91544        26.84570         3.35956
O         16.47514        38.18909         3.71287
O         16.51406        39.32350         0.30060
O         17.75357        20.89335        -1.50547
O         26.39445        16.00819         1.20205
O         18.39090        24.35302        -1.00728
O         18.74667        13.73399         0.69313
O         15.47986        45.81052         1.41376
O         17.98154        27.86826         2.91085
O         21.30579        29.12938         3.48466
O         16.04107        41.74539        -0.59469
H         16.65308        41.01084        -0.83255
O         25.42023        20.21330         2.55145
H         26.13294        19.68891         2.96999
O         32.09300        34.86655         0.93130
H         31.97022        35.67421         0.38875
O         32.13522        17.83338         1.24084
H         31.36346        17.29213         1.51499
O         24.32511        31.04269         3.98242
H         25.11462        30.60604         4.36759
O         22.96700        15.35699        -2.46758
H         22.31084        14.75161        -2.89696
O         20.90415        13.43949        -3.18674
H         20.88661        12.99008        -4.06743
O         21.36339         9.46733        -1.08523
H         22.15972         9.16138        -0.59821
O         22.14182        38.51379         0.29605
H         22.43609        37.67222        -0.13380
O         29.40969        39.09256        -0.04707
H         28.51242        38.77725        -0.28762
O         18.64940        40.68905         0.10534
H         18.76920        39.83494        -0.36200
O         26.68061        42.91477        -1.24186
H         26.82115        43.62387        -1.91915
O         17.63055        41.58220         3.47277
H         18.37679        41.71258         4.10625
O         29.06276        47.14506        -3.13514
H         29.94342        46.90456        -3.49463
O         27.71117        45.10139        -2.07831
H         27.95524        45.81097        -2.72933
O         33.75418        24.40163         2.24263
H         33.03580        23.96033         2.75685
O         21.75482        17.99783         2.15721
H         22.64137        17.74429         2.51672
O         14.16824        18.21518         1.39076
H         14.89106        17.68199         1.78616
O          6.34904        29.29423         1.73304
H          6.91721        29.60581         2.47555
O         28.53107        50.47679        -0.35543
H         27.93272        50.12598         0.33836
O         16.90254        34.16444         0.15491
H         16.99307        33.28156        -0.26337
O         32.19215        42.88494         1.86684
H         31.45055        43.47549         2.12560
O         25.70852        37.75072         0.46433
H         24.97074        37.24014         0.04876
O         28.23100        44.74589         1.58495
H         27.50812        45.37271         1.83383
O         23.24086        18.85873        -1.10767
H         23.89089        19.55004        -1.39097
O         33.52023        31.02567         3.96488
H         32.64251        31.00191         4.42591
O         12.41601        26.07000        -1.64517
H         11.55530        26.10989        -2.12629
O         10.61372        40.76929         3.12075
H         11.47394        41.11713         3.44164
O         25.26774        11.56447        -4.30554
H         26.01512        12.14081        -4.57109
O         17.36460        27.38488        -0.60826
H         16.53655        27.32419        -1.14082
O         21.04222        11.24122        -4.26034
H         21.02161        10.38529        -4.74212
O         23.90993         8.81418        -6.34720
H         24.66396         8.27392        -6.68980
O         17.59730        47.06290         1.95907
H         17.95010        46.74568         2.82134
O         27.03642        46.88356         1.09997
H         26.30903        47.51276         1.37003
O         33.70175        25.63784        -1.19410
H         34.34094        26.16722        -1.71457
O         27.18094        55.53969        -1.37150
H         26.38585        56.08898        -1.19925
O         36.39839        31.54168        -0.59440
H         35.52299        31.14798        -0.79833
O         24.76266        21.14758        -0.91624
H         24.12801        21.82067        -1.27842
O         14.40210        42.45937         2.61142
H         15.19264        42.91928         2.96935
O         21.19701        52.86994        -4.24473
H         21.17037        53.41887        -5.05764
O         24.40848        26.28997         3.55264
H         24.17890        27.10632         4.04684
O         28.96173        49.79567        -3.94721
H         28.04535        50.08943        -4.17646
O         37.11850        26.47849         2.15271
H         36.33930        25.98426         2.49029
O         24.89783        48.52274         1.42391
H         24.11665        48.29249         2.00073
O          8.67329        30.57698         3.07391
H          9.43475        30.48878         3.70451
O         28.40797        42.30203         2.76699
H         29.15470        41.77913         3.15694
O         17.77965        45.39616        -1.30428
H         17.18611        45.45243        -2.09325
O         11.06398        32.85907         0.14252
H         11.05582        33.71779        -0.33289
O         13.57623        41.15220        -0.68924
H         12.77748        40.68828        -1.01448
O         23.44146        36.13300        -0.07949
H         23.16915        35.26434        -0.45136
O         25.82070        24.70378        -0.44274
H         25.86116        25.64448        -0.71526
O         22.95921        55.27244        -0.91703
H         23.38367        54.80592        -0.16034
O         22.51378        47.60867         2.32163
H         22.09422        47.06486         3.03662
O         31.00999        23.87469         2.73985
H         30.72204        24.50026         3.43961
O         30.66147        40.74639         2.96556
H         31.47696        41.28128         3.10578
O         30.38031        24.02724        -0.86202
H         30.31534        23.34033        -1.55772
O         25.24288        45.54515        -1.83324
H         24.48174        44.93233        -1.90863
O         30.83311        31.40790         4.32817
H         30.97578        32.29630         4.73723
O         15.60325        46.26686        -3.08707
H         15.86242        46.86189        -3.82152
O          7.73794        33.22961         2.97641
H          7.99359        32.34689         3.34134
O         24.37229        17.75572         2.23906
H         25.07691        17.07724         2.37797
O          9.61838        25.80830        -2.12065
H          8.91337        26.44890        -2.35128
O         21.55075        11.86137         0.01403
H         22.29015        11.93416         0.65190
O         31.96809        34.03620         4.51267
H         32.85964        34.34732         4.79307
O         13.23054        18.92987        -2.06971
H         13.98797        19.43556        -2.43098
H          5.11233        31.46771        -0.30113
H          5.10220        33.94901        -0.09502
H          7.50485        27.30896        -0.56714
H          6.33107        29.41285        -0.33566
H          6.33663        35.99285         0.34963
H          7.48063        38.02607         0.82320
H          9.90460        22.93258        -0.47233
H          8.69218        25.06767        -0.38603
H          8.64575        40.10662         1.14100
H          9.92129        42.27098         0.88366
H         12.28212        18.61937        -0.26513
H         11.10553        20.78743        -0.53984
H         11.20212        44.14644        -0.16879
H         12.68498        45.79250        -1.44735
H         14.83650        14.38269        -1.38909
H         13.58827        16.45248        -0.98745
H         14.11143        47.59384        -2.41074
H         15.19211        49.68973        -2.81071
H         17.28343        10.30779        -2.53203
H         16.04878        12.31850        -1.82701
H         16.25965        51.85120        -3.23882
H         17.37650        53.99617        -3.76277
H         19.66738         6.39319        -4.31952
H         18.46604         8.39627        -3.49232
H         18.56534        56.04372        -4.53226
H         19.79053        57.93210        -5.48852
H         23.03396         3.38833        -5.94310
H         20.89596         4.43959        -5.25545
H         23.15251        60.98581        -6.97842
H         21.00902        59.83770        -6.45154
H         25.20134         4.53928        -5.58828
H         26.47457         6.49736        -4.78042
H         26.58247        58.20998        -5.14871
H         25.32200        60.02949        -6.23283
H         27.73916         8.44344        -3.92957
H         29.01957        10.41177        -3.03215
H         29.13321        54.48448        -3.10134
H         27.83460        56.44233        -4.04415
H         30.22130        12.48560        -2.47247
H         31.42005        14.54375        -1.96761
H         31.48233        50.25508        -2.22702
H         30.26680        52.30247        -2.98590
H         32.68394        16.52762        -1.32384
H         33.98902        18.59894        -0.82653
H         33.93554        46.21184        -1.00998
H         32.70536        48.23411        -1.46712
H         35.17322        20.74880        -0.83168
H         36.43731        22.83384        -0.49479
H         36.53489        41.93450        -0.12424
H         35.23924        44.14160        -0.40075
H         37.69346        24.87946        -0.05255
H         38.95741        27.12944         0.03393
H         39.07361        37.82356         0.97784
H         37.77191        39.91099         0.34941
H         40.12996        29.29092         0.07178
H         41.41784        31.28956         0.55717
H         41.49774        33.69010         1.18214
H         40.28514        35.81083         1.36481
