         404
 CSIRO Nanostructure Databank - Neutral Graphene Oxide Data Set
C          1.26947         2.09778         1.11469
C          1.28773         3.49777         1.19735
C          2.44364         1.39495         0.90646
C          2.48886         4.20967         1.08404
C          1.34707         6.42347         1.50414
C          1.34634         7.81001         1.47638
C          2.48742         5.68423         1.11251
C          2.49928         8.54454         1.11956
C          1.34184        10.75562         1.30810
C          1.37750        12.14139         1.39522
C          2.52665         9.99751         1.16315
C          2.59404        12.84831         1.39402
C          1.44400        15.07017         1.37849
C          1.47392        16.44608         1.41936
C          2.63903        14.30028         1.50151
C          2.70273        17.14090         1.54173
C          2.73564        18.56614         1.50518
C          3.70198         2.05177         0.83286
C          3.71985         3.49330         0.93534
C          4.83170         1.23690         0.46802
C          4.91203         4.25689         0.65054
C          3.62772         6.40927         0.71050
C          3.67400         7.82871         0.75803
C          4.79527         5.66465         0.21063
C          4.92487         8.53811         0.58441
C          3.76955        10.67684         1.10122
C          3.81697        12.10630         1.27857
C          4.98340         9.93553         0.87995
C          5.05508        12.75316         1.48116
C          3.86387        14.96482         1.70293
C          3.92144        16.39827         1.68231
C          5.10218        14.17025         1.86719
C          5.15223        17.10122         1.71065
C          3.93094        19.23705         1.52124
C          5.16817        18.51717         1.58378
C          6.15740         1.61546         0.69845
C          6.18380         3.74289         0.83049
C          7.37290         1.21278         0.11886
C          7.39283         4.29044         0.27159
C          6.08319         6.41200        -0.07741
C          6.12952         7.85795         0.25803
C          7.33871         5.62940        -0.10221
C          7.36695         8.52277         0.32879
C          6.23985        10.58392         0.99598
C          6.27920        11.96300         1.49824
C          7.45197         9.89596         0.73039
C          7.66009        12.73783         1.41894
C          6.45596        14.90305         1.92855
C          6.47276        16.42986         2.03106
C          7.65573        14.20536         1.40930
C          7.62863        17.08187         1.31573
C          6.39592        19.20877         1.45083
C          7.61456        18.50751         1.22841
C          8.55675         2.02881         0.12321
C          8.59601         3.47983         0.09872
C          9.78667         1.34016         0.02455
C          9.81849         4.12275        -0.26263
C          8.56549         6.31936        -0.44145
C          8.57745         7.82928        -0.14939
C          9.83693         5.57394        -0.41087
C          9.90718         8.40869         0.14015
C          8.70028        10.62111         0.65537
C          8.77532        12.01067         0.80286
C          9.96239         9.89207         0.42817
C          9.95728        12.73955         0.43473
C          8.77800        14.89412         0.95985
C          8.78439        16.36076         0.96894
C          9.96186        14.17088         0.50566
C          9.96493        17.07205         0.64613
C          8.78879        19.19718         0.85461
C          9.98075        18.49847         0.58531
C         11.02331         1.96149        -0.20026
C         11.03157         3.37933        -0.48906
C         12.21258         1.17320         0.05934
C         12.22880         4.08745        -0.87927
C         11.00997         6.29500        -0.56170
C         11.07646         7.73777        -0.45706
C         12.27889         5.55869        -0.67639
C         12.22239         8.48113        -0.71104
C         11.16410        10.61445        -0.00329
C         11.13573        12.04309         0.01701
C         12.27988         9.90535        -0.49641
C         12.31450        12.76253        -0.33735
C         11.13287        14.87088         0.14893
C         11.20081        16.32515         0.39589
C         12.31330        14.19320        -0.29159
C         12.41547        17.08945        -0.02772
C         11.16514        19.21428         0.19648
C         12.34542        18.56704        -0.15990
C         13.42619         1.37812        -0.57263
C         13.37111         3.47928        -1.40999
C         14.72065         0.97618        -0.14320
C         14.61972         4.16120        -1.61516
C         13.46576         6.34850        -1.11357
C         13.34058         7.81763        -1.47476
C         14.60327         5.62448        -1.73589
C         14.68432         8.50755        -1.35514
C         13.49385        10.62896        -0.80966
C         13.50357        12.05816        -0.69943
C         14.68764         9.94420        -1.15727
C         14.70425        12.78808        -0.94103
C         13.49029        14.90667        -0.66792
C         13.40639        16.38931        -0.92317
C         14.69227        14.22477        -0.94888
C         14.73094        17.10225        -0.93426
C         13.52975        19.23818        -0.53793
C         14.73687        18.54310        -0.82474
C         15.89589         1.46299        -0.74014
C         15.84029         3.50864        -1.75619
C         17.20158         1.35382        -0.24961
C         17.11852         4.17124        -1.62520
C         15.88559         6.36579        -1.93733
C         15.84448         7.82402        -1.63677
C         17.15599         5.60057        -1.79272
C         17.09954         8.55422        -1.84495
C         15.91395        10.66638        -1.27547
C         15.92172        12.09045        -1.17558
C         17.13909         9.98526        -1.52470
C         17.15212        12.80248        -1.29940
C         15.90836        14.95004        -1.22457
C         15.89113        16.38611        -1.20750
C         17.14847        14.23878        -1.33817
C         17.11729        17.14305        -1.52161
C         15.96003        19.24856        -0.93541
C         17.17592        18.58784        -1.21521
C         18.33019         2.09984        -0.71460
C         18.31145         3.45918        -1.26565
C         19.57705         1.49823        -0.42761
C         19.55782         4.17938        -1.28851
C         18.36601         6.29722        -1.71964
C         18.39500         7.76731        -1.92542
C         19.59201         5.59210        -1.52918
C         19.63897         8.50484        -1.65020
C         18.36984        10.65820        -1.48762
C         18.38048        12.08830        -1.35833
C         19.61686         9.92013        -1.51932
C         19.61724        12.79281        -1.27092
C         18.39279        14.91907        -1.40894
C         18.42982        16.37259        -1.61233
C         19.62190        14.22216        -1.28104
C         19.67768        17.10537        -1.38620
C         18.41581        19.23779        -1.22871
C         19.66066        18.53148        -1.29889
C         20.81112         2.11147        -0.67711
C         20.80442         3.50455        -1.07258
C         22.03096         1.42821        -0.43806
C         22.02514         4.18818        -1.20556
C         20.83804         6.30437        -1.56077
C         20.84522         7.76607        -1.59623
C         22.04745         5.57888        -1.45411
C         22.05630         8.48871        -1.46827
C         20.83462        10.62233        -1.28103
C         20.84503        12.07248        -1.14669
C         22.03739         9.88037        -1.26316
C         22.03659        12.79032        -0.91830
C         20.86213        14.94285        -1.19087
C         20.88502        16.38171        -1.23990
C         22.06941        14.22623        -0.95684
C         22.12593        17.08701        -1.17552
C         20.88771        19.21649        -1.15432
C         22.13196        18.53536        -1.13121
C         23.28079         2.04000        -0.60973
C         23.33231         3.41976        -1.23165
C         24.48746         1.36625        -0.35640
C         24.48987         4.23560        -0.69093
C         23.35448         6.26906        -1.60026
C         23.34725         7.78587        -1.58644
C         24.59310         5.62719        -1.12952
C         24.60027         8.48403        -1.24181
C         23.28773        10.55184        -0.86799
C         23.26227        12.03329        -0.61258
C         24.56886         9.84973        -1.05276
C         24.55902        12.77344        -0.48958
C         23.29124        14.96356        -0.80186
C         23.32853        16.35231        -1.01076
C         24.55883        14.26623        -0.51263
C         24.63227        17.03797        -1.14401
C         23.33335        19.24414        -0.92026
C         24.63484        18.62555        -1.07491
C         25.75398         2.01909        -0.36812
C         25.76504         3.49987        -0.34258
C         26.96819         1.34876        -0.28634
C         27.03958         4.21955        -0.47797
C         25.80271         6.32759        -1.00842
C         25.83707         7.75870        -1.15359
C         27.03870         5.62419        -0.70778
C         27.06106         8.47469        -0.99045
C         25.81675        10.61161        -1.13749
C         25.81310        12.10135        -0.92813
C         27.08676         9.89553        -1.01279
C         27.09231        12.79564        -0.70373
C         25.85832        14.95681        -0.66003
C         25.88567        16.34619        -0.78551
C         27.07524        14.21228        -0.58482
C         27.10846        17.06273        -0.59752
C         25.88270        19.24201        -0.66267
C         27.09919        18.53206        -0.51693
C         28.22247         2.04738        -0.25112
C         28.24301         3.48790        -0.37448
C         29.43206         1.35654        -0.10786
C         29.50130         4.17409        -0.39599
C         28.27079         6.33673        -0.69510
C         28.29209         7.76317        -0.81594
C         29.50424         5.62830        -0.49425
C         29.51005         8.48966        -0.74062
C         28.29020        10.62670        -0.88893
C         28.29696        12.07254        -0.79543
C         29.52509         9.91813        -0.80136
C         29.54356        12.78780        -0.80863
C         28.31647        14.91810        -0.52343
C         28.28842        16.34484        -0.36709
C         29.52965        14.19759        -0.67632
C         29.52434        17.03124         0.07088
C         28.27661        19.21005        -0.19699
C         29.49999        18.53016         0.35008
C         30.68593         2.03357        -0.10233
C         30.69659         3.45180        -0.29916
C         31.89919         1.34647         0.14844
C         32.00912         4.17148        -0.49700
C         30.69691         6.33903        -0.35481
C         30.73436         7.76292        -0.49464
C         31.93617         5.58566         0.07336
C         31.94363         8.46402        -0.41158
C         30.75785        10.65855        -0.83848
C         30.77512        12.05222        -0.93560
C         32.01613         9.87151        -0.81179
C         32.09323        12.76077        -1.27636
C         30.78522        14.97206        -0.82074
C         30.83280        16.33560        -0.21037
C         32.08691        14.27197        -1.05768
C         32.04733        17.13240        -0.43011
C         30.78807        19.21411        -0.02889
C         31.98910        18.53838        -0.27252
C         33.14570         2.02193         0.29751
C         33.21776         3.44176         0.05389
C         34.32288         1.34111         0.66179
C         34.40563         4.12995         0.21998
C         33.20979         6.32774        -0.15160
C         33.17559         7.76644        -0.02780
C         34.49998         5.56562        -0.25579
C         34.47693         8.55414         0.11162
C         33.34556        10.62511        -0.69903
C         33.24396        12.10235        -0.53697
C         34.55370         9.97422        -0.19886
C         34.48498        12.85790        -0.17167
C         33.35102        14.98763        -0.72180
C         33.30088        16.47490        -0.81798
C         34.50805        14.32497        -0.39724
C         34.61947        17.26960        -0.69968
C         33.24117        19.27242        -0.23583
C         34.48228        18.70696        -0.27435
C         35.55319         2.02621         0.84799
C         35.59917         3.45324         0.65941
C         36.73832         1.34658         1.21934
C         36.80707         4.14553         0.90399
C         35.62995         6.33831         0.39629
C         35.73922         7.77806        -0.00269
C         36.83605         5.62080         0.87968
C         37.02919         8.51940         0.12272
C         35.76888        10.69083         0.00363
C         35.76244        12.12558        -0.00269
C         36.99248         9.99593         0.26879
C         36.94646        12.84835         0.22650
C         35.76235        15.02834        -0.18887
C         35.82983        16.43029        -0.41158
C         36.94547        14.30133         0.15170
C         37.09619        17.02471        -0.32903
C         35.59386        19.72253         0.06508
C         36.96745        19.14339         0.18089
C         37.94513         2.03575         1.43506
C         37.98023         3.46552         1.29823
C         39.14792         1.36073         1.81994
C         39.18375         4.19335         1.59049
C         38.12819         6.33009         0.99269
C         38.24430         7.74781         0.54710
C         39.22801         5.64177         1.44573
C         39.45346         8.54026         0.91835
C         38.17510        10.71552         0.56803
C         38.15871        12.14822         0.54123
C         39.40029        10.02930         0.90023
C         39.36276        12.86919         0.82571
C         38.15031        14.99889         0.44445
C         38.19912        16.41426         0.29923
C         39.35548        14.29954         0.80288
C         39.30863        17.18881         0.82139
C         37.90537        19.30811         1.13976
C         39.17557        18.57049         1.17777
C         40.30366         2.06544         2.06151
C         40.34340         3.48880         1.95879
C         41.57776         4.20743         2.21504
C         40.44494         6.37291         1.90936
C         40.52272         7.87706         1.74183
C         41.64444         5.55957         2.18817
C         41.77983         8.65716         1.80729
C         40.57164        10.72652         1.17968
C         40.57115        12.17187         1.12678
C         41.77909         9.98134         1.53061
C         41.74411        12.92959         1.35942
C         40.53944        15.03406         1.07392
C         40.49936        16.48939         1.17431
C         41.72979        14.31170         1.32961
C         41.59178        17.21065         1.70197
C         40.27163        19.23106         1.75504
C         41.48506        18.57238         1.96263
O          7.16501        12.13703         2.64312
O         12.33118        16.63615         1.34390
O         33.43240        12.50151         0.84340
O         39.35290         7.93446        -0.41799
O          5.85338        14.35450         3.13977
O         37.26776        18.29507        -0.90056
O          6.31727         2.63574         1.66745
O         24.74831        17.83182        -2.32350
O         32.89852        10.09070        -1.98119
O         23.47964         7.03311        -2.84384
O         15.80577         2.13362        -1.97911
O         25.72516        11.57484        -2.29701
O         23.13664        11.09313         0.51598
O         17.71817         8.21533        -3.14831
O         13.34643         2.13413        -1.76871
O         24.60731        13.49397         0.76909
O         31.36933        14.94100        -2.16683
O         24.85323         4.02839         0.70283
O         13.31957         6.02710         0.29941
O         10.14715         8.86755         1.49820
O          5.16209         6.01447        -1.16474
O          8.46408         7.32327        -1.50998
O         35.77774         6.16390         1.82373
O         33.71035         8.25751         1.33845
O         17.69280        16.80178        -2.82188
O         40.09187         7.31523         3.01886
O         36.50448         8.06275        -1.19343
O         15.00172         6.04603        -3.09161
O         33.99413        17.02559        -1.99500
O         30.24846        16.32306         1.14819
O         32.34074        12.55294        -2.68191
H         31.82082        13.23188        -3.16867
O         31.84627         5.44197         1.53241
H         32.09484         6.30007         1.94076
O         23.65714         3.22583        -2.64482
H         22.90769         2.75539        -3.06666
O          6.71697        16.74357         3.44403
H          6.28579        16.02355         3.96251
O         32.21485         4.31926        -1.94270
H         32.12988         3.43071        -2.34914
O         12.96961         7.88890        -2.88030
H         13.67532         7.41721        -3.38790
O         35.24554        20.44341         1.24997
H         35.14453        19.80969         1.98908
O         12.84745        16.54191        -2.27777
H         13.51046        16.19861        -2.91411
O         34.80332         5.50507        -1.68685
H         34.00251         5.12476        -2.12639
O         29.41954        18.70174         1.81269
H         29.86716        17.91432         2.20299
H          0.31344         1.56189         1.19146
H          0.33508         4.02987         1.31975
H          2.41494         0.29997         0.81076
H          0.43702         5.90555         1.83500
H          0.43410         8.33893         1.78374
H          0.36652        10.25216         1.33467
H          0.42624        12.67904         1.50124
H          0.48056        14.56548         1.23156
H          0.54232        17.02135         1.31916
H          1.78609        19.11619         1.43587
H          4.62663         0.29379        -0.06117
H          3.95792        20.33457         1.46204
H          7.44594         0.22183        -0.35519
H          6.38868        20.30607         1.37446
H          9.77496         0.24874         0.16125
H          8.77306        20.29464         0.78422
H         12.13384         0.39509         0.83365
H         11.11246        20.31217         0.14240
H         14.80708         0.41608         0.79838
H         13.54368        20.33872        -0.53257
H         17.40084         0.59322         0.52121
H         15.96674        20.33583        -0.76746
H         19.57531         0.47759        -0.01671
H         18.44645        20.32585        -1.06710
H         21.98679         0.39628        -0.05745
H         20.88064        20.31309        -1.06656
H         24.45284         0.29235        -0.11466
H         23.28527        20.29767        -0.60752
H         26.98011         0.24883        -0.25332
H         25.85757        20.29903        -0.35808
H         29.41705         0.26371         0.01852
H         28.25312        20.30868        -0.13901
H         31.86594         0.25965         0.31723
H         30.82388        20.30542         0.10993
H         34.28928         0.25218         0.81745
H         33.17250        20.34386         0.00941
H         36.71068         0.25486         1.35488
H         35.60997        20.47472        -0.77092
H         39.13541         0.26574         1.91972
H         37.73013        20.05013         1.93301
H         41.22179         1.53341         2.35079
H         42.47681         3.61754         2.44813
H         42.58892         6.07210         2.41953
H         42.70567         8.16370         2.13630
H         42.72689        10.53006         1.61566
H         42.69504        12.42397         1.57137
H         42.67136        14.84598         1.51158
H         42.52933        16.69746         1.95190
H         40.16826        20.28674         2.04320
H         42.33980        19.11794         2.38562
