         404
 CSIRO Nanostructure Databank - Neutral Graphene Oxide Data Set
C          1.09255         2.22648        -0.26283
C          1.08756         3.54540        -0.74204
C          2.27617         1.60826         0.10694
C          2.28304         4.27265        -0.88966
C          1.13653         6.37306        -1.63658
C          1.16585         7.75965        -1.79906
C          2.29837         5.62502        -1.38686
C          2.35897         8.51407        -1.80697
C          1.27214        10.54865        -0.88404
C          1.31190        11.86798        -0.45679
C          2.37389         9.90253        -1.48854
C          2.47535        12.67324        -0.56355
C          1.46145        14.58639         0.63232
C          1.54223        15.84723         1.17563
C          2.57924        13.94618         0.01641
C          2.75030        16.61810         1.09204
C          2.76876        17.98967         1.51938
C          3.51725         2.29833         0.01473
C          3.52805         3.64983        -0.51138
C          4.70708         1.65975         0.40538
C          4.74307         4.35559        -0.58383
C          3.59003         6.25292        -1.67222
C          3.63466         7.80681        -1.99890
C          4.82374         5.67054        -1.13883
C          4.91591         8.49375        -1.79632
C          3.57954        10.69161        -1.78906
C          3.60233        12.14696        -1.39071
C          4.92681         9.94730        -1.94786
C          4.90728        12.87827        -1.43851
C          3.94432        14.56849         0.24545
C          3.89987        16.04729         0.53058
C          5.04422        14.15827        -0.70186
C          5.07499        16.83100         0.34926
C          3.89246        18.75520         1.37497
C          5.08228        18.21748         0.77688
C          5.96298         2.32571         0.39739
C          5.94993         3.76180         0.02756
C          7.14945         1.65774         0.66373
C          7.27265         4.42953        -0.24866
C          6.03458         6.38629        -1.25071
C          6.10397         7.78263        -1.57513
C          7.29625         5.63532        -1.12342
C          7.38672         8.49693        -1.52944
C          6.20627        10.66831        -1.78473
C          6.16832        12.15874        -1.86402
C          7.37989         9.95141        -1.65596
C          7.45920        12.92786        -1.75788
C          6.20379        14.92231        -0.80108
C          6.20123        16.27845        -0.29015
C          7.45886        14.31946        -1.23806
C          7.34706        17.13989        -0.54372
C          6.23386        18.99638         0.65769
C          7.42126        18.47620         0.07483
C          8.47467         2.26965         0.55510
C          8.55098         3.69887         0.01778
C          9.69865         1.47752         0.49152
C          9.78653         4.11660        -0.77030
C          8.62553         6.34829        -1.27702
C          8.60003         7.82157        -1.34421
C          9.85701         5.64214        -0.85668
C          9.86416         8.51260        -1.14623
C          8.69666        10.64168        -1.70439
C          8.75323        12.16538        -1.73679
C          9.90615         9.92163        -1.26915
C          9.97523        12.83411        -1.23727
C          8.67556        14.96354        -1.04694
C          8.68642        16.43059        -0.89452
C          9.94258        14.25915        -0.99534
C          9.90551        17.12487        -0.51667
C          8.62589        19.17195         0.05971
C          9.87445        18.52079        -0.21024
C         10.94643         2.13850         0.35040
C         11.00015         3.46598        -0.15893
C         12.16856         1.46587         0.67199
C         12.28735         4.10416        -0.35105
C         11.03438         6.34324        -0.76025
C         11.06792         7.78933        -0.88966
C         12.32030         5.61095        -0.66030
C         12.32412         8.47923        -0.83677
C         11.12752        10.63178        -1.12096
C         11.14380        12.09089        -1.07881
C         12.32421         9.89769        -0.93924
C         12.37625        12.78060        -0.72449
C         11.12251        14.95004        -0.65211
C         11.11431        16.39287        -0.42692
C         12.36510        14.22855        -0.54485
C         12.30318        17.09215        -0.14861
C         11.09440        19.20819        -0.03213
C         12.32627        18.52004        -0.04310
C         13.41476         2.13524         0.68561
C         13.46409         3.48546         0.24980
C         14.62456         1.44383         1.05048
C         14.63807         4.29448         0.50463
C         13.55630         6.37458        -0.39294
C         13.55862         7.75912        -0.61029
C         14.72626         5.69458         0.05462
C         14.92209         8.39535        -0.84843
C         13.59892        10.64619        -0.89594
C         13.55282        12.08209        -0.56313
C         14.89931         9.91580        -0.82403
C         14.78320        12.74526         0.01491
C         13.57153        14.90649        -0.33038
C         13.55301        16.34599        -0.01848
C         14.83834        14.22650        -0.26599
C         14.83900        17.10521         0.04414
C         13.56820        19.23267         0.01423
C         14.81349        18.58783        -0.02785
C         15.90039         2.01029         0.97713
C         15.95023         3.50495         0.84773
C         17.05068         1.21587         1.31633
C         17.16358         4.31708         0.68339
C         15.92855         6.42220         0.30865
C         16.03404         7.80258        -0.01023
C         17.10213         5.71477         0.72443
C         17.25769         8.51614         0.14836
C         16.12267        10.65318        -0.40695
C         16.07492        12.01896        -0.26156
C         17.34790         9.92012        -0.16330
C         17.32282        12.78374        -0.32431
C         16.04169        14.92369        -0.25572
C         16.06957        16.41392        -0.49360
C         17.30761        14.25118        -0.11583
C         17.32162        17.10764        -0.02344
C         16.05136        19.25146        -0.03934
C         17.29456        18.53891         0.05967
C         18.37405         1.56652         0.95773
C         18.42920         3.69169         0.52201
C         19.63806         1.25057         1.45929
C         19.63668         4.23994         0.92459
C         18.32740         6.45770         1.03633
C         18.42210         7.87214         0.66534
C         19.62725         5.67557         1.24921
C         19.65585         8.54247         0.80469
C         18.56830        10.60131         0.01850
C         18.63733        12.03862        -0.30532
C         19.72494         9.93962         0.51401
C         19.92866        12.83193        -0.09392
C         18.48125        14.93473         0.15655
C         18.49963        16.38609         0.21407
C         19.68849        14.15947         0.65228
C         19.72570        17.08127         0.45457
C         18.50719        19.21880         0.27308
C         19.72914        18.51574         0.43993
C         20.83576         2.03289         1.18919
C         20.84694         3.47649         1.01386
C         22.08019         1.38327         1.29249
C         22.07564         4.20445         1.12755
C         20.89538         6.39484         1.13160
C         20.88261         7.80663         1.08726
C         22.09819         5.65592         1.14483
C         22.11131         8.49284         1.22846
C         20.92309        10.68437         0.80666
C         21.00986        12.05966         0.63200
C         22.06911         9.95496         1.38253
C         22.20611        12.79549         0.92443
C         20.98101        14.94880         0.67245
C         20.95876        16.36511         0.63307
C         22.19785        14.24340         0.83219
C         22.18163        17.08929         0.75711
C         20.95148        19.21318         0.59163
C         22.17851        18.52806         0.73912
C         23.31416         2.07080         1.18063
C         23.30718         3.50860         1.16090
C         24.54711         1.38183         1.08866
C         24.54555         4.22380         1.14683
C         23.33351         6.36708         1.22749
C         23.33360         7.79422         1.31560
C         24.56566         5.64716         1.21531
C         24.59429         8.50542         1.44121
C         23.39032        10.69272         1.53928
C         23.41017        12.12561         1.21802
C         24.64267         9.92298         1.50359
C         24.65130        12.81311         1.25587
C         23.42438        14.95243         0.98352
C         23.40985        16.39128         0.93822
C         24.65447        14.23842         1.15875
C         24.60495        17.12271         1.13141
C         23.40240        19.22972         0.86286
C         24.62213        18.54872         1.05771
C         25.76690         2.06916         0.91534
C         25.76583         3.51666         0.98186
C         26.98574         1.37773         0.71539
C         26.97008         4.23995         0.81592
C         25.80918         6.34982         1.28074
C         25.80309         7.76005         1.45595
C         27.03200         5.63473         1.04602
C         27.05577         8.46489         1.74621
C         25.88668        10.63820         1.52747
C         25.88272        12.10096         1.44487
C         27.08397         9.92554         1.67429
C         27.08791        12.82035         1.46589
C         25.88501        14.93728         1.30937
C         25.82943        16.39954         1.48346
C         27.10588        14.24665         1.39333
C         27.12946        17.17334         1.56149
C         25.86874        19.25645         1.08330
C         27.10019        18.61033         1.21144
C         28.18815         2.04971         0.37252
C         28.12076         3.52728         0.23519
C         29.39189         1.36604         0.23923
C         29.39956         4.32070         0.01991
C         28.31378         6.31482         1.04924
C         28.39645         7.69488         1.60129
C         29.45816         5.67159         0.60297
C         29.62947         8.49084         1.39545
C         28.38528        10.61298         1.77430
C         28.37654        12.11248         1.65922
C         29.64808         9.87997         1.46586
C         29.58123        12.80140         1.05544
C         28.38820        14.96604         1.46340
C         28.39842        16.42516         1.45410
C         29.58235        14.26837         1.42154
C         29.57083        17.14604         1.33576
C         28.33432        19.26741         1.01053
C         29.56383        18.57735         1.08194
C         30.65445         2.00143        -0.13795
C         30.67232         3.56562        -0.21817
C         31.94228         1.35204         0.05582
C         31.96406         4.23227        -0.00170
C         30.78925         6.25672         0.86114
C         30.87120         7.70290         1.27777
C         32.00914         5.60779         0.32111
C         32.17756         8.41999         1.13827
C         30.86348        10.64467         1.30336
C         30.88695        12.05008         1.22903
C         32.16327         9.93506         1.22371
C         32.11266        12.75826         1.06673
C         30.87108        14.96545         1.60689
C         30.86641        16.46386         1.53264
C         32.16602        14.22138         1.32374
C         32.13902        17.19066         1.16313
C         30.77180        19.24232         0.76527
C         32.01891        18.58814         0.68060
C         33.14662         2.04311        -0.15779
C         33.15480         3.49682        -0.19091
C         34.39007         1.35966        -0.21297
C         34.38704         4.20282        -0.27422
C         33.21996         6.32641         0.19857
C         33.29866         7.74766         0.45695
C         34.40139         5.62721        -0.19044
C         34.43613         8.48279         0.11389
C         33.34992        10.64654         0.71065
C         33.33412        12.09250         0.77664
C         34.45602         9.91784         0.28401
C         34.51479        12.84614         0.52488
C         33.35658        14.99346         0.88316
C         33.34301        16.40626         0.79961
C         34.52424        14.26641         0.51059
C         34.48197        17.12340         0.34678
C         33.16239        19.22957         0.20909
C         34.40862        18.54380         0.09366
C         35.61105         2.04775        -0.39977
C         35.60559         3.48608        -0.45257
C         36.84747         1.36982        -0.53145
C         36.80477         4.19796        -0.69435
C         35.60722         6.34287        -0.46880
C         35.61612         7.79877        -0.42058
C         36.76619         5.62149        -0.79496
C         36.74536         8.50408        -0.79808
C         35.72439        10.63448         0.01218
C         35.75297        12.11834         0.18300
C         36.69005         9.99912        -0.97186
C         36.84131        12.89803        -0.48237
C         35.75451        14.99126         0.22695
C         35.73057        16.44558         0.15755
C         36.92136        14.32158        -0.11237
C         36.87569        17.15903        -0.21656
C         35.55027        19.22721        -0.34318
C         36.79382        18.56218        -0.50054
C         38.04947         2.07006        -0.75579
C         38.03654         3.49287        -0.86994
C         39.30592         1.37959        -0.87186
C         39.25738         4.20563        -1.11333
C         37.95768         6.31319        -1.30072
C         37.94240         7.82986        -1.32139
C         39.25305         5.61769        -1.28970
C         39.23997         8.53443        -1.34259
C         38.04377        10.67115        -0.99635
C         38.05847        12.13547        -0.99050
C         39.24401         9.96974        -1.23250
C         39.33379        12.83867        -1.09801
C         38.22370        15.00823        -0.21031
C         38.25219        16.53806        -0.13253
C         39.40367        14.27698        -0.79709
C         39.26628        17.16788        -1.07083
C         37.92504        19.24266        -0.99493
C         39.12488        18.55688        -1.34926
C         40.47452         2.06260        -1.07838
C         40.48410         3.49091        -1.20837
C         41.67522         4.21880        -1.44549
C         40.44645         6.33699        -1.49674
C         40.43203         7.80810        -1.53639
C         41.65851         5.59711        -1.57087
C         41.63776         8.54255        -1.68686
C         40.48262        10.68114        -1.43105
C         40.51227        12.13781        -1.38597
C         41.65060         9.92999        -1.66153
C         41.69587        12.89470        -1.64502
C         40.54532        15.03573        -1.32900
C         40.42711        16.47485        -1.50118
C         41.67197        14.29028        -1.70188
C         41.43648        17.20231        -2.18238
C         40.16053        19.24886        -2.02706
C         41.30684        18.56956        -2.42531
O          3.67746         6.78636        -3.02240
O         26.39110        16.84313         2.78242
O         28.45367         4.11825        -1.07155
O         15.12614         4.10594         1.88210
O         30.95204         6.62908         2.28370
O          6.55888         4.69579         0.99497
O         12.48602         4.63753        -1.74288
O          7.99601         5.59670        -2.39568
O         22.52242        10.40062         2.70088
O         18.04281        12.40454        -1.58972
O          3.90980        13.02339        -2.52682
O         18.82699         6.11699         2.38849
O         30.62470         2.77042        -1.40733
O         37.69534         7.05333        -2.55551
O         27.77789         7.88432         2.89922
O         36.99686        12.71358        -1.92022
O         28.53858        11.50210         2.95730
O         31.69852        14.48313         2.70903
O          7.87336        17.10163        -1.90226
O         39.21157        14.44033         0.73239
O         31.70310        17.07017         2.56343
O          8.74789         3.49073         1.41485
O          6.76755        12.77606        -3.04353
O         14.29345        16.58269         1.28112
O          8.95393        11.38883        -2.94872
O         32.51637         9.10289         2.38620
O         14.43542        10.42936        -2.13318
O         18.41767         2.47081        -0.13681
O         36.30537        11.21483         1.21932
O          4.13490        10.42606        -3.09612
O          4.37135        13.94902         1.54619
H          3.76044        14.29358         2.23396
O         16.00564        16.60923        -1.94590
H         16.80096        16.19430        -2.34171
O         15.28300         8.00606        -2.21494
H         14.89442         8.69351        -2.80712
O         38.70944        16.89057         1.21102
H         39.25116        16.12510         1.52366
O         19.37728        13.78817         2.02746
H         19.29943        14.60829         2.55861
O         29.32007        12.75488        -0.39613
H         30.08168        13.16495        -0.85786
O         36.06857        10.19997        -2.28414
H         36.63582         9.76365        -2.95511
O         14.61546        12.63022         1.48220
H         14.00842        13.34638         1.76930
O         20.47567        13.14326        -1.39444
H         19.73015        13.07529        -2.03808
O          9.64263         3.57723        -2.11213
H         10.41416         3.89000        -2.63429
H          0.14151         1.68250        -0.17785
H          0.12807         4.00139        -1.02019
H          2.26725         0.57802         0.49041
H          0.15254         5.88929        -1.56630
H          0.20452         8.29064        -1.83898
H          0.35626         9.97081        -0.69814
H          0.42531        12.26471         0.05510
H          0.48082        14.09136         0.61370
H          0.64658        16.31567         1.60771
H          1.85696        18.41510         1.96276
H          4.66442         0.61257         0.74013
H          3.89885        19.80338         1.70725
H          7.10915         0.57294         0.84623
H          6.23589        20.02486         1.04842
H          9.66745         0.40338         0.72326
H          8.65174        20.20632         0.43404
H         12.12216         0.41470         0.99244
H         11.08199        20.29542         0.13396
H         14.53945         0.37202         1.28388
H         13.53458        20.33257         0.03095
H         16.87043         0.29100         1.88532
H         16.07536        20.35152        -0.03044
H         19.75415         0.38027         2.12309
H         18.51365        20.31814         0.31262
H         22.09887         0.29008         1.41656
H         20.94661        20.31319         0.58213
H         24.54634         0.28146         1.08624
H         23.39833        20.32849         0.81427
H         26.98905         0.27856         0.76109
H         25.85318        20.34130         0.90081
H         29.41552         0.29187         0.47813
H         28.33734        20.34014         0.76702
H         31.96682         0.28585         0.32502
H         30.72268        20.30775         0.49402
H         34.39687         0.26092        -0.15808
H         33.10922        20.28685        -0.08999
H         36.86892         0.27190        -0.46239
H         35.48430        20.30172        -0.56833
H         39.31333         0.28352        -0.78220
H         37.84885        20.31928        -1.20939
H         41.42754         1.51939        -1.15686
H         42.62832         3.67594        -1.52322
H         42.61137         6.11653        -1.73767
H         42.58784         8.01723        -1.84759
H         42.60965        10.44330        -1.81166
H         42.63114        12.37990        -1.89898
H         42.58330        14.80656        -2.03457
H         42.34144        16.68655        -2.52982
H         40.04609        20.32198        -2.23549
H         42.11018        19.10658        -2.94854
