         349
 CSIRO Nanostructure Databank - Neutral Graphene Oxide Data Set
C          1.60019         2.02051        -0.93458
C          1.59770         3.41161        -1.12948
C          2.79087         1.32328        -0.82664
C          2.79582         4.13786        -1.21269
C          1.62754         6.29714        -1.62671
C          1.64332         7.66642        -1.86584
C          2.82074         5.57587        -1.43323
C          2.84667         8.38519        -1.87361
C          1.64449        10.64158        -2.31363
C          1.71005        11.99583        -2.44965
C          2.86001         9.82341        -2.23985
C          2.93517        12.73572        -2.24060
C          1.84973        15.04613        -2.52207
C          1.79586        16.37317        -2.17620
C          3.00918        14.19634        -2.39385
C          2.89203        17.20337        -1.69273
C          2.61584        18.25017        -0.71930
C          4.03517         2.00461        -0.90898
C          4.03831         3.43673        -1.09638
C          5.24376         1.29042        -0.76581
C          5.26183         4.14231        -1.18677
C          4.06284         6.28370        -1.43907
C          4.06798         7.70631        -1.60412
C          5.29872         5.56183        -1.28835
C          5.30745         8.43367        -1.42190
C          4.16691        10.59498        -1.97658
C          4.06701        12.04514        -1.82907
C          5.33092         9.86453        -1.43461
C          5.17465        12.79347        -1.14503
C          4.29165        14.75456        -2.41423
C          4.20049        16.98724        -2.07151
C          5.41678        14.12216        -1.81762
C          5.34191        17.74167        -1.50726
C          3.59328        18.96904        -0.10955
C          5.01454        18.80063        -0.46593
C          6.49424         1.93383        -0.84702
C          6.51061         3.36904        -1.19421
C          7.70263         1.26562        -0.61478
C          7.82629         4.13749        -0.95684
C          6.53436         6.28814        -1.15530
C          6.50219         7.70594        -1.17434
C          7.76029         5.60069        -0.81029
C          7.74656         8.45948        -0.96938
C          6.47353        10.60122        -1.03705
C          6.46251        12.03144        -0.99252
C          7.68560         9.89590        -0.69679
C          7.62098        12.75833        -0.69557
C          6.63081        14.76192        -1.58912
C          6.63350        17.03962        -1.34003
C          7.66981        14.19615        -0.78813
C          7.52153        17.28834        -0.32213
C          6.09891        19.14884         0.47347
C          7.29893        18.50305         0.47044
C          8.92612         1.96265        -0.37340
C          8.95138         3.39736        -0.39083
C         10.08024         1.26814         0.03829
C         10.05121         4.10510         0.14391
C          8.88798         6.26045        -0.32053
C          8.99739         7.72181        -0.47303
C         10.02499         5.54693         0.20098
C          9.96137         8.47515         0.33884
C          8.79963        10.55551        -0.19211
C          8.83872        12.02252        -0.33866
C          9.91759         9.85164         0.40269
C          9.95332        12.80879         0.25818
C          8.73853        14.98973        -0.20828
C          8.68497        16.42650        -0.01824
C          9.85968        14.28964         0.34129
C          9.80075        17.08331         0.55208
C          8.43115        19.06423         1.30316
C          9.77161        18.48118         0.92517
C         11.23432         1.95423         0.51541
C         11.20215         3.40503         0.59268
C         12.35178         1.25833         0.96040
C         12.33728         4.12652         1.04200
C         11.10173         6.24363         0.77616
C         10.96212         7.68836         1.09318
C         12.28141         5.55279         1.17752
C         12.06307         8.40148         1.81847
C         10.70424        10.58904         1.48770
C         10.88060        12.10073         1.20078
C         12.06373         9.92210         1.99639
C         12.14645        12.84487         1.46173
C         11.02538        14.96879         0.74476
C         11.03408        16.39125         0.75129
C         12.24950        14.26460         1.05099
C         12.23778        17.09961         0.97126
C         10.93881        19.17915         1.11541
C         12.22683        18.53229         1.03579
C         13.50948         1.94213         1.61812
C         13.53509         3.43377         1.39490
C         14.84313         1.31118         1.29585
C         14.70438         4.14596         1.60896
C         13.44162         6.25712         1.61063
C         13.38766         7.69394         2.10409
C         14.67115         5.57587         1.65475
C         14.62959         8.48283         1.72868
C         13.32668        10.60225         1.40573
C         13.37651        12.07325         1.81881
C         14.63467         9.87198         1.66948
C         14.67681        12.79200         1.84229
C         13.44528        14.94169         1.17514
C         13.47142        16.38286         1.11158
C         14.73850        14.16298         1.18047
C         14.66492        17.09868         1.23557
C         13.44163        19.22590         1.09225
C         14.68042        18.52332         1.12728
C         15.98860         1.97725         1.51691
C         15.97343         3.42010         2.00759
C         17.30804         1.24536         1.56504
C         17.24045         4.19521         1.61564
C         15.90685         6.33998         1.60115
C         15.85002         7.73120         1.59726
C         17.16102         5.64923         1.34993
C         17.05897         8.51153         1.27067
C         15.88569        10.62705         1.74895
C         15.93913        11.99817         1.82633
C         17.12865         9.79893         2.06524
C         17.19662        12.75392         2.08420
C         15.93865        14.94344         1.57294
C         15.96760        16.42983         1.58277
C         17.19585        14.25410         1.85029
C         17.09052        16.95366         0.67724
C         15.93582        19.18032         1.02929
C         17.14822        18.47113         0.81165
C         18.41555         1.99556         0.85287
C         18.46405         3.46275         1.07391
C         19.36140         1.35755         0.14223
C         19.46674         4.24243         0.33788
C         18.29626         6.32584         0.90920
C         18.28658         7.80305         0.84802
C         19.48509         5.63613         0.44773
C         19.57230         8.54586         0.86875
C         18.49024        10.52758         1.96212
C         18.52649        12.04230         2.02253
C         19.64871         9.82579         1.32977
C         19.73262        12.81406         1.61740
C         18.45180        14.94240         1.43484
C         18.39597        16.23112         0.97276
C         19.70399        14.17940         1.39266
C         19.61784        16.90502         0.50145
C         18.35027        19.12838         0.63630
C         19.58187        18.40716         0.30538
C         20.56619         2.01363        -0.48095
C         20.50642         3.54560        -0.43248
C         21.85504         1.49384         0.21168
C         21.79699         4.31712        -0.63396
C         20.66730         6.38918         0.08252
C         20.67144         7.90755         0.04815
C         21.83813         5.74672        -0.27936
C         22.05196         8.46235         0.43395
C         20.94507        10.57193         1.27069
C         21.00507        12.06158         1.46925
C         22.00287         9.97362         0.38290
C         22.21971        12.79885         1.02543
C         20.94069        14.92284         1.14987
C         20.90786        16.24779         0.80816
C         22.26209        14.23070         1.48134
C         22.11407        17.09973         0.94048
C         20.86343        19.13555         0.27264
C         22.06443        18.51626         0.48149
C         23.10148         2.19165        -0.30216
C         23.07663         3.56697        -0.67848
C         24.30825         1.52032        -0.29677
C         24.25235         4.25300        -0.98933
C         23.06266         6.47047        -0.58152
C         23.15562         7.83884        -0.39070
C         24.17780         5.72504        -1.20135
C         24.36282         8.58190        -0.66370
C         23.16625        10.78924        -0.07788
C         23.29984        12.19319         0.41579
C         24.36075        10.11109        -0.75300
C         24.55876        12.88555         0.24588
C         23.49064        14.96006         0.98903
C         23.45265        16.42917         1.12630
C         24.62371        14.28762         0.56400
C         24.68689        17.21966         0.82554
C         23.30192        19.20941         0.23818
C         24.53794        18.60147         0.31297
C         25.52223         2.18614        -0.62305
C         25.51106         3.57235        -0.98067
C         26.75369         1.50539        -0.48556
C         26.75171         4.23545        -1.26550
C         25.47459         6.48246        -1.40790
C         25.51244         7.91016        -1.03278
C         26.74561         5.68861        -1.60695
C         26.82036         8.59640        -0.89478
C         25.68938        10.78428        -0.46437
C         25.73311        12.18444        -0.20329
C         26.86967        10.08287        -0.79527
C         26.96754        12.89290        -0.42386
C         26.00404        14.94609         0.67395
C         25.96858        16.47855         0.56909
C         27.04944        14.30358        -0.21289
C         27.04007        17.19755        -0.16057
C         25.71852        19.27099        -0.14000
C         26.90601        18.61169        -0.38609
C         27.96159         2.17394        -0.66532
C         27.96038         3.54244        -1.09354
C         29.20774         1.50166        -0.35735
C         29.28392         4.18336        -1.28422
C         28.04983         6.42973        -1.64748
C         28.07756         7.84839        -1.16443
C         29.34896         5.68878        -1.53140
C         29.34939         8.58013        -1.32768
C         28.08271        10.76154        -1.00901
C         28.12624        12.18210        -0.90016
C         29.28036        10.05304        -1.61639
C         29.32715        12.88673        -1.19991
C         28.14704        15.05072        -0.65489
C         28.15280        16.47983        -0.59829
C         29.26875        14.37441        -1.41832
C         29.32135        17.22966        -1.19145
C         28.02659        19.39678        -1.04780
C         29.36801        18.71419        -0.76554
C         30.39566         2.16778        -0.31638
C         30.47854         3.55374        -0.69319
C         31.63768         4.29407        -0.54285
C         30.56367         6.42402        -1.13483
C         30.55078         7.88771        -1.24132
C         31.67639         5.70154        -0.75054
C         31.77687         8.62749        -1.25745
C         30.58299        10.76066        -1.36008
C         30.56749        12.19591        -1.35722
C         31.77069        10.01611        -1.27849
C         31.77322        12.93191        -1.43492
C         30.60462        15.06155        -1.22853
C         30.65768        16.52782        -0.87569
C         31.77174        14.33020        -1.28512
C         31.76599        17.27002        -1.57212
C         30.54137        19.37746        -1.43706
C         31.66105        18.64039        -1.80103
O         25.70219        17.09492         1.88143
O         22.71628        16.93835         2.29193
O         18.80187        11.21566         3.19729
O          8.85809         8.12454        -1.87038
O         24.54681         6.21363        -2.52304
O          5.36463        19.16660        -1.85814
O          7.41487         3.68383        -2.29237
O         10.94421         7.84979         2.57237
O         29.54229         4.73929        -2.61646
O          3.80486        10.11640        -3.31899
O         27.35701         6.12003        -2.88116
O         18.35750         3.84399         2.50401
O         17.16065        13.66545         3.22613
O         16.88407         9.42809         3.39829
O          4.48844        16.01203        -3.03398
O         13.93911        12.54779         3.07664
O          6.86078        15.98736        -2.22802
O         17.37982         8.45005        -0.16441
O         27.57899         7.95101         0.23580
O         10.05585        12.38215        -1.13928
O         20.83414         4.10638        -1.74406
O         19.45935        17.45898        -0.86454
O         11.05953        12.78835         2.46744
O         21.36931        11.10241         2.55287
O         21.96864        10.59453        -0.93400
O         29.16947        17.23253        -2.63550
H         29.02394        16.29273        -2.93139
O         21.94248         0.08865        -0.00667
H         21.70858        -0.05412        -0.95117
O         29.55317        18.85929         0.65990
H         30.22799        18.19893         0.95237
O         22.33740         8.08905         1.80462
H         21.83297         8.67220         2.41255
O         20.42243         8.28921        -1.32670
H         19.48374         8.09313        -1.53370
O         12.12094        10.14747         3.41661
H         12.48347         9.33586         3.84660
O         13.34089         1.75305         3.06925
H         14.08844         2.22940         3.50143
O         20.64352         1.57234        -1.85153
H         20.81131         2.37876        -2.39881
O         29.05713        10.15727        -3.08685
H         29.75969         9.63276        -3.52807
O          9.78258        10.52410         2.59134
H         10.34194        10.54400         3.40891
O         16.35012        16.84389         2.93093
H         15.89817        16.25973         3.57630
O         14.99797        13.80376        -0.24453
H         15.22101        14.63665        -0.72013
O         28.90230        14.54276        -2.86903
H         29.47744        13.93533        -3.38370
O          8.43230        20.49114         1.24766
H          8.43102        20.76268         0.30699
O         22.35999        14.22940         2.93838
H         22.42343        15.17497         3.21357
O         13.45384         7.63490         3.57102
H         14.38910         7.49114         3.83407
O         24.19778        10.35995        -2.18289
H         23.23957        10.23795        -2.38151
O         27.77620        19.52249        -2.44988
H         28.10234        18.69438        -2.88149
O         30.89037        16.59244         0.57826
H         31.71491        16.09781         0.77063
O         17.15148        -0.07548         1.07366
H         17.92100        -0.61027         1.35168
O         16.75613        16.62630        -0.69331
H         17.52584        16.92112        -1.23884
O         26.43027        14.62247         2.02611
H         26.11908        15.36063         2.60283
O         15.94461         3.35285         3.46553
H         16.88167         3.38239         3.76952
O          4.69061        13.07246         0.22457
H          5.44859        13.42150         0.74034
O         13.12851        10.60604        -0.03477
H         13.91394        11.00327        -0.46813
H          0.64272         1.48514        -0.87104
H          0.62933         3.92162        -1.21519
H          2.78728         0.23421        -0.67767
H          0.65970         5.77961        -1.62625
H          0.69349         8.18053        -2.06443
H          0.66109        10.15055        -2.29530
H          0.77677        12.55892        -2.59117
H          0.88967        14.56008        -2.75440
H          0.79944        16.84349        -2.15282
H          1.56731        18.40463        -0.42466
H          5.20677         0.21016        -0.56084
H          3.34012        19.67175         0.69770
H          7.68527         0.17701        -0.45595
H          5.95945        20.01448         1.13900
H         10.07516         0.16807         0.04329
H          8.25645        18.78970         2.38306
H         12.35342         0.15795         0.92439
H         10.88940        20.24487         1.38503
H         14.87938         0.24131         1.03929
H         13.44608        20.32592         1.08896
H         17.60445         1.20119         2.66092
H         15.96227        20.28081         1.00808
H         19.28419         0.26958        -0.00660
H         18.40703        20.21851         0.77680
H         21.78404         1.66716         1.32020
H         20.84454        20.19845        -0.01290
H         24.33591         0.46405         0.00732
H         23.24074        20.24435        -0.13013
H         26.75317         0.45259        -0.16753
H         25.63654        20.33507        -0.40777
H         29.15896         0.44016        -0.07467
H         28.04305        20.43027        -0.61471
H         31.31390         1.65323         0.00237
H         32.54104         3.79852        -0.15843
H         32.61059         6.22461        -0.50298
H         32.73648         8.09750        -1.20512
H         32.73575        10.53521        -1.19679
H         32.73612        12.41697        -1.53608
H         32.74260        14.84087        -1.19226
H         32.67221        16.73930        -1.89789
H         30.53291        20.46852        -1.57641
H         32.50451        19.15729        -2.28477
