         280
 CSIRO Nanostructure Databank - Neutral Graphene Oxide Data Set
C         30.26239        31.93756         1.54629
C         30.43988        33.12298         1.88444
C         30.50732        36.24403         1.64327
C         30.45080        37.41871         1.23874
C         30.38216        40.28646         0.39114
C         30.41144        41.51698         0.45162
C         32.54850        29.25691         0.05846
C         31.51833        29.80848         0.45486
C         32.71319        31.83653         1.14451
C         31.34375        31.21462         0.84586
C         32.85121        33.13499         1.97572
C         31.57142        33.99355         1.95152
C         32.91002        36.15740         1.59441
C         31.60024        35.34113         1.77835
C         32.76167        37.40815         0.69546
C         31.56926        38.08165         0.58787
C         32.68172        40.17572        -0.29112
C         31.38421        39.34170        -0.20797
C         32.74091        41.52897        -0.19054
C         31.62038        42.38933         0.52489
C         32.75877        44.21249        -0.36987
C         31.57835        43.75480        -0.16041
C         35.32013        27.80575        -0.85917
C         35.16905        29.08405        -0.19167
C         33.91278        29.90050        -0.06368
C         35.27630        31.60900         1.26044
C         33.93438        30.87024         1.15762
C         35.29781        33.10510         1.29883
C         34.04110        33.91093         1.41483
C         35.25039        35.85150         0.46671
C         34.03903        35.24480         1.16529
C         35.29134        37.35770         0.34489
C         33.97573        37.97243         0.02752
C         35.22081        40.13475        -0.60799
C         33.92761        39.39622        -0.53203
C         35.23108        41.50122        -0.72719
C         33.89663        42.20405        -0.92145
C         35.18455        44.40267        -1.26170
C         33.99620        43.70728        -0.69139
C         35.29997        45.84813        -0.79376
C         37.67044        27.43516        -0.45145
C         36.32238        27.12748        -1.14428
C         37.65981        29.00165        -0.48762
C         36.39539        29.62077         0.09957
C         37.78116        31.66582         0.65787
C         36.56813        30.80965         1.01235
C         37.75761        33.10601         0.84421
C         36.57334        33.79538         1.02534
C         37.80195        36.03245         0.90682
C         36.51857        35.26552         1.04198
C         37.76643        37.38528         0.30144
C         36.49917        38.00511         0.06808
C         37.75233        40.09382        -0.71193
C         36.47126        39.29097        -0.74897
C         37.70863        41.48916        -1.07976
C         36.46601        42.27268        -0.87536
C         37.77836        44.39237        -0.82011
C         36.51122        43.65676        -0.97439
C         37.75632        45.79044        -0.56221
C         36.44858        46.31036        -0.67774
C         40.08645        25.02465        -1.93871
C         38.97820        25.64758        -1.78181
C         40.12067        27.62444        -1.11483
C         38.92652        26.92133        -1.10678
C         40.16668        29.11617        -0.79925
C         38.98636        29.52564         0.11085
C         40.23515        31.70062         0.44320
C         38.95556        31.02605         0.32616
C         40.24373        33.06361         0.75711
C         39.02346        33.83900         0.81047
C         40.29816        36.04851         0.94569
C         39.03621        35.23354         0.85888
C         40.22737        37.33012         0.13334
C         39.01680        37.97634        -0.08842
C         40.31175        40.06147        -0.88750
C         39.00589        39.32723        -0.74120
C         40.35116        41.54157        -1.12539
C         39.06254        42.30775        -1.21490
C         40.30391        44.39472        -0.59499
C         39.04337        43.71008        -0.82279
C         40.31641        45.84736        -0.26711
C         38.94912        46.54726        -0.19054
C         40.21166        48.59695        -0.29214
C         39.13354        47.98713        -0.38359
C         42.67790        24.96402        -1.83579
C         41.38000        25.48894        -1.89397
C         42.64497        27.47552        -0.84448
C         41.40990        27.07138        -1.70980
C         42.71412        28.96107        -0.49249
C         41.49021        29.62927        -0.23856
C         42.73380        31.51927         0.72322
C         41.45647        30.92782         0.31326
C         42.79008        33.01400         1.02615
C         41.49129        33.79640         1.19157
C         42.78113        35.85045         0.23654
C         41.50653        35.18471         0.59449
C         42.77124        37.36492         0.38137
C         41.53836        37.95296        -0.33554
C         42.85314        40.14907        -0.31820
C         41.49618        39.48119        -0.12121
C         42.88720        41.66451        -0.32457
C         41.61542        42.28816        -0.89367
C         42.79964        44.48290        -0.87521
C         41.52459        43.75015        -0.68209
C         42.80627        45.94642        -0.59424
C         41.57486        46.63998        -0.45385
C         42.81872        48.67282        -0.45289
C         41.54652        48.08299        -0.40253
C         43.78439        25.40303        -1.42425
C         45.20161        27.38944        -0.63140
C         44.01513        26.92806        -1.47058
C         45.29172        28.96395        -0.64556
C         43.97800        29.58546        -0.17921
C         45.22976        31.51940         0.88566
C         43.99615        30.85767         0.37053
C         45.24160        33.00521         0.96361
C         44.07787        33.71447         0.81469
C         45.27174        35.96169         0.70974
C         44.11356        35.11578         0.20453
C         45.23876        37.32069         0.63560
C         44.09027        37.97285        -0.12632
C         45.27866        40.27726         0.04678
C         44.01913        39.49208        -0.09759
C         45.40793        41.61269        -0.58592
C         44.11530        42.19582        -1.13347
C         45.42650        44.50562        -1.24188
C         44.07917        43.74040        -1.19505
C         45.31696        45.80972        -0.34657
C         44.06327        46.60585        -0.57981
C         43.88386        47.98869        -0.49702
C         47.60101        27.57660        -0.83102
C         46.56751        26.97704        -1.15883
C         47.81712        28.91444        -0.32152
C         46.58734        29.51225        -0.01626
C         47.91127        31.49828         0.98891
C         46.55830        30.79288         0.73381
C         47.83315        33.04406         1.13310
C         46.48882        33.75384         1.42102
C         47.79210        35.96215         1.37467
C         46.57144        35.19199         0.79451
C         47.73782        37.47495         1.21538
C         46.42701        38.14634         0.97874
C         47.88822        40.09473         0.22725
C         46.49210        39.60038         0.57938
C         47.92210        41.51689        -0.33712
C         46.62079        42.25527        -0.60637
C         47.85784        44.39607        -0.70271
C         46.68075        43.69005        -0.86264
C         47.62543        45.81142        -0.71847
C         46.63603        46.55121        -0.60577
C         50.38801        29.21946        -0.22461
C         49.06119        29.62023        -0.21506
C         49.90391        31.89458        -0.55378
C         48.94541        31.06883        -0.02950
C         50.10122        33.28349        -0.11008
C         48.98740        33.89609         0.66467
C         50.27039        36.01753         0.87164
C         48.97464        35.36537         0.66238
C         50.31222        37.54715         0.57326
C         48.94290        38.27543         0.73730
C         50.15529        40.37536         1.29753
C         48.97163        39.71910         1.21774
C         50.43090        41.67791         0.54925
C         49.19299        42.31205        -0.12573
C         49.59535        44.38742         1.13009
C         49.17873        43.85302        -0.26790
C         51.62004        29.45000        -0.08696
C         52.74252        31.54440         0.23303
C         52.81137        30.11257         0.16103
C         52.46759        32.74192         0.21265
C         51.50342        33.83648         0.16566
C         52.68581        36.17143         0.75409
C         51.56262        35.19796         0.83087
C         52.63515        37.32883         1.20187
C         51.47224        38.20783         1.39300
C         52.49694        40.58505         2.06199
C         51.36978        39.65066         1.81409
C         52.25247        41.83455         2.07255
C         51.25227        42.61805         1.51080
C         50.65770        43.86568         1.59598
O         50.90131        35.41033         2.08921
O         42.83392        32.03992         2.11675
O         37.06579        35.92721         2.20645
O         35.42158        32.27591         2.55117
O         50.82398        34.03904        -1.12761
O         48.88005        33.41577         2.07529
O         43.24035        44.20066        -2.29715
O         33.80014        38.24301        -1.41708
O         38.30688        41.90447        -2.37669
O         48.90641        41.68725        -1.40859
O         41.26023        41.86543        -2.25210
O         45.70881        40.41972         1.48207
O         45.80959        30.74589         1.99965
O         41.88664        35.30177        -0.79941
O         48.45616        38.91204        -0.58425
O         46.99970        38.04397         2.33707
O         39.78458        39.34476        -2.03889
O         32.02912        32.05171        -0.11953
O         39.62620        46.09192         1.01140
O         51.11118        38.57282         2.73372
O         45.06829        26.93640         0.70423
H         45.07296        25.95462         0.69346
O         44.33811        37.61415        -1.50192
H         43.48571        37.72381        -1.99716
O         37.64093        29.38790        -1.87468
H         36.84288        28.99031        -2.28572
O         45.30122        45.39059         1.00725
H         45.22344        46.17317         1.59152
O         33.58576        42.05648        -2.33651
H         34.20343        42.63915        -2.84059
O         45.64536        44.91737        -2.59354
H         44.76779        44.97701        -3.03815
O         44.37679        34.83974        -1.21154
H         43.53323        34.96993        -1.70517
O         37.60213        26.95717         0.86483
H         37.88293        26.01982         0.88780
O         42.41639        26.80511         0.40764
H         43.17042        27.01068         1.00966
O         33.08292        32.73990         3.33823
H         33.48739        33.48946         3.82300
O         41.34562        34.01133         2.63174
H         41.64953        33.17658         3.06553
O         33.88977        30.70943        -1.24299
H         33.72956        30.13594        -2.02069
O         40.06131        29.82258        -2.05926
H         40.75981        29.46811        -2.65522
O         41.73528        37.69324        -1.74306
H         40.96512        38.08560        -2.23260
O         44.02305        41.69546        -2.47370
H         43.29488        42.18153        -2.92574
O         50.67970        31.50534        -1.59952
H         51.14198        32.31368        -1.92735
O         50.67365        37.61611        -0.80963
H         50.09487        38.27212        -1.26188
O         51.33081        41.28022        -0.49111
H         50.88126        41.40536        -1.35680
O         41.17956        39.78375         1.26866
H         41.78369        39.21856         1.82069
O         36.45082        38.79474        -2.13197
H         36.42098        39.56737        -2.73659
O         41.56238        27.65525        -3.02946
H         40.79360        27.37445        -3.57250
O         46.93468        34.98952        -0.60261
H         46.11479        35.00824        -1.16008
O         35.20521        35.36615        -0.91250
H         34.67540        35.99511        -1.45047
O         40.42649        36.46589         2.35143
H         40.48250        35.63624         2.88876
O         48.36951        30.98163         2.25464
H         47.61807        31.04865         2.88549
O         32.02504        42.55289         1.86299
H         31.32779        43.03803         2.35008
O         42.73523        37.68628         1.79064
H         41.95564        37.22090         2.21102
O         31.02910        39.00984        -1.54458
H         30.26673        38.39571        -1.52153
O         39.22816        28.91920         1.38852
H         38.46853        29.15370         1.97816
O         35.04720        44.41228        -2.69851
H         34.26525        44.95946        -2.92664
O         33.28474        36.64399         2.90800
H         32.57662        37.24827         3.21799
O         43.03001        42.13559         1.03099
H         42.49081        41.55497         1.61313
O         46.30622        33.80428         2.84102
H         47.17375        34.08049         3.22924
O         50.17829        44.20739        -1.20229
H         50.03895        45.13864        -1.47440
O         44.20870        27.31850        -2.79554
H         43.36049        27.24247        -3.29119
O         47.97561        35.73961         2.78865
H         47.55985        36.49759         3.26289
O         33.81727        30.07139         2.34022
H         33.85756        30.68421         3.10932
O         45.38744        29.39798        -2.02473
H         46.07026        28.84736        -2.46826
O         36.91805        30.20997         2.30359
H         36.69311        30.88016         2.99142
O         53.99880        29.49596         0.33996
H         53.88973        28.52635         0.28275
