         317
 CSIRO Nanostructure Databank - Neutral Graphene Oxide Data Set
C         30.59336        31.51718         1.69226
C         30.51475        32.72927         1.47883
C         30.31787        35.97626         0.61950
C         30.52408        37.20786         0.61269
C         30.59372        40.20304        -0.24865
C         30.74657        41.44246        -0.62420
C         32.88983        28.73247         0.81796
C         31.77376        29.21195         1.10523
C         32.92403        31.43569         0.96239
C         31.73785        30.62522         1.53422
C         32.87252        32.98620         1.00057
C         31.42330        33.65311         0.70561
C         32.72483        35.88270         0.80525
C         31.45327        35.08706         1.24196
C         32.80963        37.33063         1.30063
C         31.58525        38.13823         0.73642
C         32.97045        40.18787         0.53410
C         31.63427        39.47656         0.44384
C         32.91176        41.60534         1.07576
C         30.70986        42.71694        -1.04369
C         32.71083        44.21059        -0.19050
C         31.79504        43.47680        -0.64072
C         35.64950        27.26771         0.50012
C         35.31410        28.62093         0.18186
C         34.12072        29.25243         0.31620
C         35.30700        31.47866         0.07817
C         33.92438        30.74846        -0.00544
C         35.15931        32.97132        -0.26626
C         33.91528        33.68578         0.13653
C         35.27513        35.90127         0.26805
C         33.95316        35.19148         0.28677
C         35.26872        37.32845         0.60657
C         34.13568        37.99603         0.98273
C         35.38280        40.25686         0.91819
C         34.11272        39.48158         1.29961
C         35.30765        41.72388         0.66737
C         34.00525        42.40611         0.87469
C         35.12918        44.61231         0.41659
C         33.83233        43.91267         0.81641
C         35.28213        46.02161         0.92876
C         38.07188        27.22179         0.42402
C         36.69768        26.61559         0.43677
C         37.90246        28.65978        -0.16176
C         36.52529        29.22496        -0.53303
C         37.71265        31.55481        -0.87720
C         36.45118        30.76251        -0.67153
C         37.66004        33.08301        -0.90550
C         36.38789        33.81023        -0.54924
C         37.66917        36.03583        -0.53812
C         36.41219        35.25965        -0.15931
C         37.80618        37.39263         0.11856
C         36.59624        38.06564         0.74412
C         37.76650        40.28802         0.28164
C         36.47162        39.50138         0.18268
C         37.73865        41.63780         0.14350
C         36.42338        42.35618        -0.16964
C         37.77951        44.68055        -0.08093
C         36.42184        43.91002        -0.00470
C         37.79461        46.01273         0.72120
C         36.51250        46.36385         1.01049
C         40.53591        25.09087         1.64219
C         39.81027        25.47955         0.71505
C         40.30604        27.26015        -0.71044
C         39.14867        26.38740        -0.28346
C         40.39668        28.69559        -0.22886
C         39.03385        29.38204        -0.36486
C         40.28594        31.65823        -0.53142
C         38.96411        30.90336        -0.26342
C         40.27223        33.12823        -0.78234
C         38.97625        33.86786        -1.10532
C         40.24572        36.03359        -0.74824
C         38.96845        35.22509        -0.32760
C         40.28827        37.43016        -0.15849
C         39.00659        38.06170         0.16243
C         40.25890        40.21438        -0.02882
C         39.03856        39.52258         0.61646
C         40.28750        41.71701         0.30490
C         38.98661        42.43599        -0.13917
C         40.28410        44.58600         0.24845
C         38.95554        43.85633         0.48777
C         40.29466        46.00152         0.32256
C         39.09484        46.67030         1.05662
C         40.13716        48.74806         0.21939
C         39.17200        48.11647         0.65304
C         42.89339        24.87506         1.34203
C         41.74807        24.59954         2.15836
C         42.76572        27.26077        -1.04737
C         41.51679        26.61280        -1.03734
C         42.79837        28.72613        -1.39688
C         41.46226        29.41722        -1.05363
C         42.78376        31.63849        -1.48171
C         41.46368        30.90626        -1.09882
C         42.83766        33.06280        -0.86586
C         41.56048        33.87495        -1.19576
C         42.77657        36.05414        -0.74026
C         41.53891        35.24188        -0.42746
C         42.75219        37.39988        -0.51548
C         41.50687        38.07641        -0.13696
C         42.80764        40.30499         0.02928
C         41.56880        39.50110         0.37376
C         42.78249        41.66009         0.01591
C         41.50993        42.40941        -0.32714
C         42.68954        44.62730        -0.12170
C         41.48685        43.89724        -0.01082
C         42.65606        46.03641        -0.29220
C         41.41651        46.71949        -0.14622
C         42.62947        48.83574        -0.52091
C         41.24448        48.26725        -0.63714
C         43.46082        25.51176         0.46350
C         44.98224        27.39812         0.11009
C         43.97049        26.45521        -0.57374
C         45.28064        28.67403        -0.78612
C         44.01649        29.50738        -0.91258
C         45.33329        31.60408        -1.09059
C         44.03342        30.85921        -1.03311
C         45.36236        33.11589        -1.15677
C         44.06866        33.85580        -1.31618
C         45.23668        35.97531        -0.45968
C         44.04969        35.39757        -1.26389
C         45.30602        37.45485        -0.82557
C         43.97350        38.25290        -0.85171
C         45.27906        40.32486        -0.46888
C         44.11094        39.52221         0.03885
C         45.17586        41.80937        -0.67847
C         44.07736        42.40507         0.22229
C         45.23990        44.66473        -0.38439
C         43.99545        43.93172         0.03431
C         45.10875        46.10459        -0.77486
C         43.91424        46.75206        -0.61641
C         43.63665        48.15259        -0.76083
C         47.40817        27.43233         0.33507
C         46.35149        26.79443         0.32305
C         47.69063        28.80096        -0.03391
C         46.54678        29.45650        -0.40207
C         47.79981        31.67999        -0.37807
C         46.61522        30.88437        -0.80958
C         47.74553        33.05878        -0.28108
C         46.57997        33.84118        -0.68082
C         47.76489        35.94824        -0.10522
C         46.57126        35.22210        -0.55197
C         47.91786        37.45195        -0.40119
C         46.60551        38.18186        -0.71419
C         47.58323        40.35282         0.36741
C         46.61017        39.71500        -0.71241
C         47.70067        41.83559         0.06397
C         46.49515        42.54225        -0.45222
C         47.82350        44.61579        -0.82215
C         46.51334        43.89987        -0.58447
C         47.56276        46.06390        -0.93347
C         46.44024        46.58296        -0.99911
C         50.08062        28.95473         0.84042
C         49.06277        29.38139        -0.19418
C         50.29150        31.67264         0.30814
C         49.07836        30.93938        -0.17304
C         50.08578        33.06585         0.85317
C         48.80561        33.78227         0.47663
C         49.84389        35.95020         1.36241
C         48.80389        35.26210         0.48107
C         50.06788        37.40892         0.91816
C         48.71591        38.13784         0.75238
C         50.11427        40.32136         0.60852
C         48.87851        39.63289         0.53003
C         50.25689        41.68548         0.29861
C         49.03693        42.50598         0.06676
C         50.43564        44.44784        -0.23107
C         49.10880        43.90138        -0.55074
C         51.07623        29.53036         1.28048
C         52.42739        31.73478         1.67145
C         51.80893        30.72346         0.81186
C         52.36510        32.97272         1.60537
C         51.27988        33.86484         1.29835
C         52.15867        36.14739         1.92453
C         51.19560        35.20590         1.45426
C         52.19709        37.36941         2.12810
C         50.97250        38.27433         1.88790
C         52.05627        40.61047         2.00464
C         51.35722        39.56722         1.17552
C         52.18100        41.81167         1.74498
C         51.68606        42.40448         0.44187
C         51.35970        43.84466         0.31612
O         34.09599        33.25239        -1.22651
O         35.47706        44.49348        -0.98100
O         37.58311        36.25586        -2.02667
O         32.97710        35.82093        -0.62158
O         32.89427        30.93731         2.34563
O         40.91949        30.10570        -2.21252
O         50.12518        31.49781        -1.10461
O         46.10856        37.70075        -2.01844
O         44.83040        44.57858         1.05587
O         36.93640        31.07656        -2.00961
O         48.99606        33.16121         1.82889
O         36.74956        33.56771        -1.94937
O         48.60424        43.99976        -1.89217
O         46.17914        31.07455        -2.19961
O         44.81098        33.46102        -2.48517
O         35.84993        41.15346         1.96006
O         36.40407        28.64770        -1.92225
O         40.49335        32.61059         0.57465
O         48.17975        42.53516         1.28847
O         39.07472        34.08273        -2.52216
H         38.16306        34.26397        -2.85806
O         33.38326        44.40296         2.08165
H         33.57428        45.36989         2.11010
O         31.29089        35.05318         2.62055
H         31.55899        35.92213         3.00734
O         52.54789        30.46119        -0.31113
H         52.17434        29.69654        -0.79334
O         33.24981        33.38690         2.32497
H         32.73109        32.84687         2.96565
O         36.79605        38.13862         2.17480
H         37.61907        38.66151         2.35679
O         44.38349        39.05551         1.39833
H         44.84346        39.79963         1.85896
O         35.74796        31.39632         1.45255
H         35.00511        31.63116         2.05282
O         40.83552        48.26251        -1.97451
H         41.60217        48.08472        -2.55548
O         38.95503        34.92681         1.07276
H         39.88561        34.77955         1.37946
O         40.45723        41.86798         1.72894
H         39.95660        41.13564         2.17314
O         36.32137        36.89225        -2.32515
H         35.72829        36.13474        -2.55944
O         49.54019        28.95918        -1.46653
H         50.09327        29.68765        -1.83406
O         48.67690        37.54963        -1.62160
H         48.06863        37.29829        -2.35314
O         40.24252        36.26519        -2.17189
H         39.44646        36.79662        -2.40076
O         31.15609        33.61399        -0.66128
H         30.58897        34.38023        -0.90061
O         38.67648        31.04849         1.16082
H         39.17816        31.82572         1.50456
O         40.09288        40.04232        -1.44392
H         40.71072        40.67281        -1.89671
O         46.84296        40.27472         1.63264
H         47.22267        40.99122         2.19747
O         38.50023        27.40623         1.77914
H         37.81421        27.91651         2.25960
O         43.77657        38.72500        -2.19427
H         43.85395        37.93577        -2.78109
O         49.32492        35.90111         2.70824
H         49.12287        34.95676         2.90816
O         33.36167        30.83767        -1.30645
H         33.90104        30.27667        -1.91679
O         47.13474        40.16982        -1.98301
H         46.78483        39.54757        -2.66153
O         44.77798        42.06894        -2.05095
H         45.38939        41.56468        -2.63131
O         44.86847        35.86372         0.93823
H         45.56428        36.28917         1.48470
O         38.56224        25.66129        -1.35514
H         39.28051        25.18732        -1.82479
O         42.84055        31.72831        -2.89889
H         42.78196        30.80555        -3.24591
O         45.56737        28.17891        -2.11564
H         45.66985        28.96672        -2.69909
O         43.06202        32.90015         0.55618
H         42.23156        32.53780         0.95643
O         44.43680        27.79775         1.34953
H         45.10312        28.31785         1.84379
O         50.31357        38.55478         3.08162
H         49.87775        37.72985         3.39746
O         36.06290        39.42468        -1.18970
H         36.60500        38.75529        -1.66239
O         38.97361        42.58222        -1.58157
H         38.05088        42.42602        -1.90618
O         41.48942        42.32392        -1.77950
H         40.66690        42.77350        -2.09753
O         39.12927        39.55352         2.07319
H         39.98673        39.11782         2.32190
O         40.83001        28.76771         1.15199
H         40.14985        28.29217         1.69107
O         39.33231        46.54932         2.45601
H         40.11510        47.09008         2.68892
O         31.78238        42.05487         1.64503
H         31.92291        42.98322         1.94359
O         44.18559        35.86983        -2.62458
H         43.65687        35.26686        -3.19457
O         36.19085        42.11565        -1.57522
H         35.48079        42.73440        -1.86539
O         52.24149        39.28573         0.08608
H         52.86946        38.58723         0.38328
O         38.67875        43.76734         1.89027
H         39.41189        43.24582         2.30108
O         41.46444        25.26481        -1.26611
H         42.35450        24.94846        -1.53080
O         44.46588        42.13332         1.58991
H         44.88625        42.96021         1.93381
O         41.57095        35.02265         1.00249
H         42.42859        34.58181         1.21883
O         41.66741        39.37665         1.83285
H         42.61078        39.12863         2.02048
O         33.87920        39.66455         2.71365
H         34.59161        40.27507         3.03511
O         42.94188        28.81912        -2.86209
H         42.12862        28.44002        -3.26048
O         41.83576        23.99944         3.33571
H         42.75502        23.73308         3.53517
O         52.53982        42.00517        -0.58233
H         52.68538        41.02981        -0.50801
O         50.75459        37.25888        -0.32322
H         50.66853        38.07411        -0.86231
O         38.03002        45.00979        -1.44391
H         37.17348        45.29010        -1.83929
O         44.58844        25.70181        -1.62179
H         45.07375        26.35055        -2.18770
O         33.43631        40.28515        -0.83457
H         32.69774        40.61824        -1.38964
O         35.24171        29.22395        -2.57117
H         35.65535        29.84637        -3.22162
O         47.93352        37.89276         1.94333
H         47.44441        38.72581         2.16621
O         32.67927        37.31054         2.73657
H         33.04933        38.16463         3.08795
O         41.67834        34.11521        -2.59174
H         40.84951        34.55178        -2.90907
