         318
 CSIRO Nanostructure Databank - Neutral Graphene Oxide Data Set
C         30.38811        31.61037         0.33119
C         30.37034        32.81094         0.70243
C         30.40700        36.19109         1.10503
C         30.66321        37.43988         1.19072
C         30.58282        40.78870         0.89809
C         30.64603        41.99360         0.62371
C         32.95473        28.98346        -0.51319
C         31.88722        29.62271        -0.22465
C         33.04114        31.80219         1.12228
C         31.23420        30.50383         0.59236
C         32.80927        33.05815         0.60071
C         31.48276        33.76532         0.49688
C         32.84666        36.03747         0.71890
C         31.47838        35.28819         0.61248
C         32.75865        37.48646         0.15086
C         31.62710        38.36393         0.83166
C         32.87600        40.52319         0.21917
C         31.49917        39.76107         0.25280
C         32.83778        41.91882        -0.41720
C         31.39747        42.69657        -0.46476
C         32.80744        44.56618        -0.97917
C         31.78340        44.13638        -0.40775
C         35.56238        27.29286         0.53100
C         35.44869        28.46511        -0.37412
C         34.16215        28.73277        -1.10729
C         35.33736        31.63614         0.14779
C         34.33728        31.14280         0.96633
C         35.19801        33.04839        -0.38206
C         34.13323        33.82517         0.45796
C         35.30616        36.00240        -0.01215
C         33.93988        35.26488        -0.07827
C         35.29571        37.48842        -0.31648
C         34.11949        38.25217         0.27325
C         35.30610        40.38477        -0.42301
C         33.98359        39.64440        -0.41756
C         35.27209        41.75060        -1.10833
C         34.02102        42.54861        -0.71716
C         35.33934        44.62803        -1.14899
C         34.12533        43.98684        -1.03096
C         38.39006        46.93703        -2.54923
C         37.66554        27.69472         1.72285
C         36.51012        26.92754         1.23557
C         37.71388        28.96395         0.90898
C         36.59076        29.41459        -0.00518
C         37.73200        31.56946        -0.45901
C         36.54909        30.91033        -0.15635
C         37.69019        32.94999        -1.14398
C         36.59936        33.80830        -0.38710
C         37.46070        36.16897        -1.28500
C         36.30574        35.26861        -0.95403
C         37.73166        37.44382        -0.94282
C         36.67700        38.15403        -0.10138
C         37.70027        40.30513        -1.20562
C         36.59819        39.64637        -0.38763
C         37.77097        41.76252        -0.77697
C         36.58342        42.45221        -0.78830
C         37.71736        44.51739         0.08359
C         36.51838        43.91066        -0.55675
C         38.18490        45.90822        -0.13965
C         38.30255        46.45026        -1.38737
C         40.10996        24.99581         2.32296
C         39.07807        25.67559         2.52157
C         40.13773        27.45540         1.24865
C         38.97380        27.16554         2.29885
C         40.20225        28.93855         0.88062
C         39.03631        29.58701         0.60042
C         40.30583        31.65456        -0.15310
C         38.99527        30.98185         0.06846
C         40.32974        32.91721        -0.93419
C         39.05463        33.66295        -1.12243
C         40.34029        35.81056        -0.94796
C         39.23191        34.94760        -1.53572
C         40.34406        37.34737        -1.19000
C         39.00568        38.07420        -1.55414
C         40.33946        40.32091        -1.01369
C         39.05636        39.59121        -1.29854
C         40.21432        41.63010        -0.28777
C         39.02353        42.31860        -0.25295
C         40.12809        44.32515         0.90324
C         38.83549        43.56091         0.63619
C         40.16764        45.66557         1.12081
C         38.80566        46.48372         1.08596
C         40.18617        48.45295         1.52020
C         39.13809        47.94223         1.10966
C         42.60320        24.69049         1.54192
C         41.40128        25.28320         1.85964
C         42.65665        27.34466         0.77262
C         41.51649        26.90476         1.72327
C         42.79960        28.85687         0.78237
C         41.53474        29.68974         0.89888
C         42.87831        31.48752        -0.43128
C         41.56359        30.84448        -0.09435
C         42.91789        32.94368        -0.75026
C         41.64022        33.62062        -1.10232
C         42.85064        35.83126        -0.67642
C         41.67380        35.13200        -1.36507
C         42.88801        37.29310        -1.18305
C         41.52750        38.01656        -1.06854
C         42.81293        40.08405        -0.26828
C         41.68599        39.55490        -1.14079
C         42.63786        41.29159         0.62903
C         41.51093        42.29936         0.15958
C         42.56182        44.10580         1.65513
C         41.27461        43.37654         1.24370
C         42.61781        45.60206         1.78355
C         41.48601        46.41154         1.20453
C         42.79562        48.45086         1.73036
C         41.43239        48.04696         2.15631
C         43.72070        25.22572         1.24530
C         45.19215        27.24839         0.95909
C         43.98895        26.59513         1.00496
C         45.27244        28.78715         1.08734
C         44.00517        29.48433         0.62069
C         45.31351        31.50001        -0.08460
C         44.12110        30.86278         0.11007
C         45.40349        32.80941        -0.86050
C         44.10741        33.61142        -0.84896
C         45.31914        35.77606        -0.76127
C         44.15332        35.07902        -0.87474
C         45.28999        37.19777        -0.23862
C         44.05157        38.00492        -0.55590
C         45.29881        39.99028         0.23665
C         44.02904        39.36211        -0.20292
C         45.23497        41.22986         1.10859
C         43.98305        42.08859         0.74034
C         45.08053        44.22392         1.54321
C         43.86475        43.28092         1.74071
C         45.02689        45.43950         2.60861
C         43.90823        46.30811         2.10080
C         43.75966        47.67953         2.14085
C         47.66619        27.24709         0.88910
C         46.52473        26.75385         0.96573
C         47.84752        28.72366         0.92043
C         46.52357        29.34818         0.37418
C         47.92526        31.40038        -0.21607
C         46.60195        30.89783         0.46306
C         47.89768        32.90255        -0.56781
C         46.59380        33.66678        -0.35112
C         47.89711        35.81857        -0.73441
C         46.62263        35.05018        -1.03910
C         47.83293        37.30186        -0.80703
C         46.53245        38.00462        -0.56773
C         47.79920        40.10281         0.20597
C         46.50219        39.39026        -0.00918
C         47.77199        41.55627         0.57409
C         46.45862        42.16841         0.96215
C         47.60769        44.37671         1.16971
C         46.39627        43.47819         1.32514
C         47.46319        45.53469         2.06911
C         46.40540        45.99659         2.49284
C         50.46209        28.92241         0.78770
C         49.12792        29.48612         0.97790
C         50.46071        31.54150        -0.03590
C         49.18407        31.03907         0.65865
C         50.46711        33.02286        -0.24806
C         49.17034        33.68500        -0.63379
C         50.36460        35.89301        -1.05486
C         49.10336        35.18197        -0.66677
C         50.31389        37.42856        -1.15890
C         49.11300        38.00941        -0.38406
C         50.25009        40.37371        -0.71445
C         49.01425        39.53596        -0.51191
C         50.27578        41.75270         0.01231
C         48.86888        42.44181        -0.07914
C         50.19361        44.40081         0.64530
C         48.83528        43.89311         0.50947
C         51.44941        29.39787         0.21012
C         52.76537        31.57273        -0.52670
C         51.62515        30.78548        -0.15324
C         52.81620        32.77529        -0.83956
C         51.76380        33.76440        -0.59122
C         52.81999        36.07492        -1.12425
C         51.68126        35.13415        -1.18214
C         52.72987        37.31020        -1.11663
C         51.69874        38.23139        -0.60101
C         52.66499        40.58759        -0.50936
C         51.64349        39.66728        -1.10555
C         52.68546        41.79992        -0.30361
C         51.49426        42.69849        -0.47088
C         51.29882        43.92954         0.37049
O         42.24826        44.76415         2.94660
O         47.06742        37.84209        -1.92315
O         50.85250        35.28824        -2.33885
O         36.59028        28.62737        -1.25888
O         41.03506        32.85671        -2.22620
O         47.88067        44.72649        -0.22715
O         32.10067        30.91557         1.71080
O         38.24318        35.56184        -2.28434
O         31.26801        34.63814        -0.64581
O         36.12090        40.39198         0.78195
O         42.17163        30.59145        -1.37986
O         48.35590        29.23159         2.17299
O         49.29500        40.17643        -1.78058
O         39.75518        40.33276        -2.37557
O         48.14406        40.53604         1.57233
O         36.52725        44.34915         0.90164
O         37.30953        28.96555         2.33189
O         51.24942        33.75039         0.76130
O         39.64139        31.87193         1.12860
O         48.54885        33.11686        -1.85348
O         51.75631        38.26341         0.81672
H         52.23179        37.47349         1.14836
O         35.73344        35.91305         1.36398
H         36.50673        36.52452         1.50048
O         40.82511        42.69725         2.43586
H         40.78565        43.37141         3.15135
O         38.38474        43.04355         1.89312
H         37.41461        43.23295         1.95908
O         34.45022        29.94385         1.58888
H         33.60044        29.79250         2.07029
O         41.86305        27.40465         2.99685
H         41.05134        27.49499         3.55342
O         45.37150        29.07345         2.50394
H         44.53975        28.79598         2.94628
O         33.69800        39.48132        -1.81620
H         32.83851        38.99399        -1.90826
O         43.86132        42.71640         3.05979
H         43.83094        43.47379         3.69951
O         46.43944        33.93996         1.04720
H         46.52224        33.09910         1.56283
O         51.35619        43.01116        -1.82426
H         52.06422        43.63011        -2.09526
O         45.24517        37.03040         1.22622
H         45.35313        37.91672         1.64132
O         44.85671        44.90401         0.27860
H         45.65763        45.43077         0.05842
O         34.23840        28.51576        -2.43565
H         35.17811        28.34882        -2.67421
O         35.14648        41.63081        -2.53914
H         34.55155        40.86034        -2.71241
O         33.24463        40.75842         1.60383
H         32.52811        41.29356         2.01429
O         39.71112        26.75629         0.07306
H         40.46114        26.73991        -0.56999
O         37.20320        40.21839        -2.56083
H         37.87103        40.62940        -3.15096
O         41.94257        43.02670        -1.00662
H         42.26442        42.38837        -1.67990
O         50.58328        41.50650         1.38312
H         49.85655        40.97401         1.79140
O         34.39616        38.41847         1.69415
H         34.07557        39.31418         1.98279
O         50.13905        37.76379        -2.51283
H         50.64215        37.11916        -3.05971
O         45.67355        32.40875        -2.22202
H         45.93819        33.21824        -2.72532
O         38.05414        46.14369         2.22958
H         38.41066        46.63236         2.99946
O         39.24759        27.82858         3.51939
H         38.55325        28.51779         3.65975
O         46.66027        34.87077        -2.48230
H         46.69984        35.76597        -2.88913
O         42.19271        39.83192        -2.49316
H         41.39854        39.94924        -3.07010
O         30.74311        42.40850        -1.67096
H         31.06956        43.01240        -2.36795
O         40.09900        35.66812         0.46932
H         40.90033        35.97384         0.96084
O         35.75193        35.07291        -2.28379
H         35.55232        35.95827        -2.65759
O         41.59789        30.29759         2.22314
H         40.84825        30.94432         2.27318
O         41.81687        35.29480        -2.78063
H         41.41939        34.50231        -3.20988
O         43.25229        37.30265        -2.58727
H         43.11543        38.22983        -2.90383
O         42.25695        27.01624        -0.58374
H         42.91744        27.38619        -1.20847
O         46.31520        28.92687        -0.97306
H         46.92762        29.42984        -1.56623
O         35.38649        45.92879        -1.48133
H         36.30404        46.27350        -1.54721
O         31.04373        39.61968        -1.08560
H         30.19890        39.12370        -1.08824
O         44.79676        44.97525         3.93803
H         44.54845        45.74172         4.49484
O         41.84995        46.80220        -0.09668
H         41.12433        47.32463        -0.50107
O         48.52469        42.55491        -1.45814
H         48.02257        43.39242        -1.58525
O         49.21162        37.69662         1.01574
H         50.05275        38.07846         1.36917
O         42.31431        40.67526         1.88523
H         41.88500        41.34388         2.47872
O         49.16865        31.74315         1.89416
H         48.63845        31.22320         2.54122
O         46.65728        31.30097         1.85211
H         46.10489        30.66836         2.38440
O         42.65336        35.87104         0.76039
H         43.49270        36.20687         1.17011
O         37.13673        33.85492         0.92247
H         36.42234        34.11695         1.55746
O         44.30593        42.51318        -0.59694
H         44.36847        43.50026        -0.63839
O         34.62423        33.84052         1.81919
H         34.16160        34.58557         2.28728
O         45.25655        40.66167         2.42423
H         44.85436        41.30680         3.05632
O         48.12461        30.68439        -1.44924
H         48.31985        31.35681        -2.15007
O         33.16547        36.08131         2.11484
H         33.81563        36.82298         2.25133
O         51.78527        39.67840        -2.50190
H         51.51192        40.55383        -2.84598
O         37.27265        32.73470        -2.51234
H         37.31454        33.61316        -2.95902
O         33.48323        35.19062        -1.43155
H         33.80252        34.34202        -1.84365
O         34.69737        32.88374        -1.72967
H         35.48410        32.68455        -2.30502
O         41.26930        47.87603         3.51457
H         42.14676        47.81963         3.94354
O         37.12999        38.07728         1.28973
H         36.49917        38.64312         1.79943
O         32.31108        37.42406        -1.20254
H         32.40477        36.49771        -1.54780
O         38.89438        37.90907        -2.98362
H         39.45287        38.59743        -3.40617
