         762
 CSIRO Nanostructure Databank - Neutral Graphene Oxide Data Set
C         23.00902        24.47772         2.04190
C         21.84909        25.19261         2.28834
C         22.86958        27.29801         1.58476
C         21.81059        26.60460         2.11920
C         22.84821        28.81205         1.65332
C         21.64259        29.46493         1.01683
C         22.83107        31.60820         1.04310
C         21.64740        30.80290         0.80054
C         22.78615        33.02212         1.09852
C         21.61596        33.78906         0.89630
C         22.78817        35.96139         0.90097
C         21.62333        35.18654         0.79529
C         22.84020        37.38804         0.69095
C         21.67574        38.13756         0.35510
C         22.88257        40.27157         0.29555
C         21.72247        39.50673         0.10425
C         22.90696        41.69314         0.06450
C         21.72192        42.41686        -0.26675
C         22.92419        44.54464        -0.29668
C         21.72741        43.78767        -0.40740
C         22.93530        45.98841        -0.39967
C         21.73355        46.72453        -0.46529
C         22.95621        48.81625        -0.56677
C         21.74853        48.11349        -0.53321
C         25.45406        23.00928         1.28330
C         25.41384        24.44965         1.38208
C         24.16424        25.12097         1.54351
C         25.35388        27.27965         0.81261
C         24.06719        26.54225         1.17333
C         25.30213        28.77861         0.78667
C         24.09563        29.50439         1.16713
C         25.35388        31.62710         1.19331
C         24.09443        30.90165         1.11338
C         25.31809        33.06549         1.39187
C         24.02205        33.74928         1.44469
C         25.31445        35.95370         1.10321
C         24.02291        35.29671         1.34264
C         25.31953        37.37354         0.80300
C         24.07933        38.07608         0.77002
C         25.37922        40.24813         0.58706
C         24.07213        39.57652         0.94488
C         25.34663        41.76542         0.72623
C         24.11466        42.43761         0.16063
C         25.39814        44.56686        -0.12509
C         24.13551        43.83376        -0.05053
C         25.40835        45.99678        -0.34630
C         24.18205        46.70638        -0.41532
C         25.45168        48.85641        -0.60815
C         24.18664        48.14034        -0.52826
C         25.48332        50.26620        -0.93355
C         27.90485        22.93026         1.46312
C         26.61213        22.30188         1.18424
C         27.89604        24.48511         1.44761
C         26.62409        25.18779         1.24688
C         27.88447        27.29472         0.96291
C         26.65624        26.59360         1.01849
C         27.91309        28.77223         0.79145
C         26.61942        29.54576         0.78966
C         27.79166        31.60246         1.72602
C         26.56792        30.94973         1.20121
C         27.75969        33.11952         1.94618
C         26.48766        33.80452         1.49553
C         27.76971        35.85945         0.89429
C         26.48944        35.22837         1.28645
C         27.77952        37.29313         0.40466
C         26.52657        38.07205         0.54891
C         27.78871        40.13337        -0.19583
C         26.52775        39.50822         0.39167
C         27.85003        41.63910         0.00849
C         26.63773        42.44950         0.30512
C         27.82415        44.54656        -0.53229
C         26.59406        43.86803        -0.10007
C         27.87789        46.01108        -0.47384
C         26.65482        46.71222        -0.43496
C         27.95282        48.84957        -0.62078
C         26.65424        48.14663        -0.53725
C         27.95159        50.35391        -0.88951
C         26.63685        50.95567        -1.14039
C         30.41101        20.09592         0.97289
C         29.22829        20.78175         1.10576
C         30.32842        22.94408         0.90683
C         29.17810        22.22309         1.13044
C         30.39188        24.40537         1.17712
C         29.14839        25.20439         1.20565
C         30.41802        27.33261         1.02423
C         29.14471        26.59379         1.05540
C         30.45997        28.73878         1.19787
C         29.19201        29.50750         1.07540
C         30.40494        31.65168         1.87987
C         29.11180        30.88097         1.68659
C         30.25794        33.13981         1.78887
C         29.03773        33.79191         1.48618
C         30.24996        35.91605         1.20599
C         29.04389        35.18369         1.26066
C         30.17140        37.42940         1.24240
C         29.14774        37.98743         0.23978
C         30.22985        40.22304         0.44184
C         29.07888        39.50147         0.30859
C         30.33357        41.59254        -0.13829
C         29.08468        42.29706        -0.52391
C         30.36986        44.50695        -0.48698
C         29.10291        43.78091        -0.72351
C         30.38077        45.92922        -0.63923
C         29.13665        46.66348        -0.72655
C         30.37581        48.68179        -1.42532
C         29.15663        48.05135        -0.92481
C         30.39407        50.14117        -1.75042
C         29.17224        50.98803        -1.51577
C         30.55185        53.03229        -1.75560
C         29.38489        52.44942        -1.41237
C         32.99694        18.66555         0.63385
C         32.88446        20.11996         0.53071
C         31.64519        20.76582         0.69162
C         32.82272        22.97805         0.16401
C         31.54513        22.22187         0.46042
C         32.84415        24.47099         0.31658
C         31.67558        25.15134         0.96116
C         32.85922        27.33494         0.80839
C         31.64309        26.63392         0.90666
C         32.88208        28.73724         0.94221
C         31.68314        29.44674         1.19637
C         32.99690        31.62551         1.22337
C         31.73467        30.90538         1.56650
C         33.26882        32.89845         1.71923
C         31.37887        33.96231         1.94306
C         32.74083        35.82023         0.73485
C         31.48091        35.28372         1.47375
C         32.80692        37.34418         0.87369
C         31.53461        38.09908         1.09241
C         32.79320        40.29414         0.52751
C         31.51299        39.59066         0.85268
C         32.77193        41.72819         0.15435
C         31.57257        42.39144        -0.00838
C         32.72206        44.58684         0.36366
C         31.52395        43.81812        -0.12451
C         32.81683        45.98758        -0.19902
C         31.63393        46.61721        -0.60623
C         32.94908        48.76386        -1.01161
C         31.71089        47.96954        -1.18071
C         32.98946        50.13199        -1.48067
C         31.74482        50.77517        -1.98453
C         33.09066        52.97051        -2.12770
C         31.77214        52.28498        -2.14100
C         33.14086        54.33439        -2.45082
C         35.28476        18.73097        -0.32667
C         34.10670        17.99032         0.26806
C         35.40622        20.07293         0.40851
C         34.10394        20.86405         0.31955
C         35.33888        23.01336         0.09584
C         34.10739        22.25242         0.22572
C         35.40741        24.40121         0.20227
C         34.15179        25.18628         0.33227
C         35.47328        27.33370         0.78673
C         34.16182        26.60014         0.82815
C         35.44534        28.78853         0.49939
C         34.11992        29.45141         0.52506
C         35.37678        31.68363         0.26435
C         34.06902        30.95745         0.45049
C         35.41992        33.13000         0.59387
C         34.26541        33.77603         1.23084
C         35.31886        35.92901         0.83709
C         34.16343        35.19622         1.10201
C         35.30738        37.30132         0.26576
C         33.98207        38.02135         0.21310
C         35.28553        40.22790         0.00144
C         33.94502        39.52265        -0.09284
C         35.27816        41.67988         0.06654
C         34.03215        42.43681         0.18512
C         35.23168        44.59544         0.44592
C         34.00700        43.82153         0.22816
C         35.25775        46.05629         0.21590
C         34.05107        46.71063        -0.15752
C         35.33477        48.86105        -0.29952
C         34.06651        48.12500        -0.46565
C         35.40995        50.24952        -0.91520
C         34.18945        50.84645        -1.50999
C         35.56755        52.87750        -2.14173
C         34.28739        52.22076        -1.96857
C         35.54989        54.20021        -2.71915
C         34.35562        54.92510        -2.78738
C         37.80231        15.88731        -0.77307
C         36.61376        16.57706        -0.54237
C         37.84022        18.66192        -0.34886
C         36.60714        17.96596        -0.34831
C         37.81024        20.13705        -0.31554
C         36.61891        20.81434        -0.09110
C         37.88307        23.03865        -0.40125
C         36.53852        22.25253        -0.29892
C         37.85798        24.46388        -0.05503
C         36.66378        25.11645         0.15258
C         37.88620        27.31048        -0.12934
C         36.79468        26.55870         0.63631
C         37.87233        28.79752        -0.12077
C         36.60367        29.49001         0.21439
C         37.86844        31.59834         0.17096
C         36.65300        30.92806         0.19963
C         37.93267        33.02812         0.56626
C         36.70897        33.78742         0.92250
C         37.88737        36.04306         0.60761
C         36.65411        35.29091         0.99367
C         37.80762        37.46254         0.18735
C         36.56433        38.09241         0.09110
C         37.73161        40.23407        -0.49657
C         36.47336        39.51443        -0.14577
C         37.70108        41.73792        -0.52036
C         36.47192        42.38086        -0.02078
C         37.77025        44.55897         0.10256
C         36.52766        43.80236         0.28543
C         37.72564        45.92702         0.46782
C         36.51276        46.73681         0.32917
C         37.80836        48.87422        -0.03689
C         36.58329        48.12570         0.02519
C         37.95578        50.06091        -0.92190
C         36.71466        50.70757        -1.54824
C         37.99944        52.90347        -1.42760
C         36.77796        52.22543        -1.70079
C         38.11513        54.40636        -1.42251
C         36.75896        54.79633        -3.31372
C         38.34475        56.79976        -3.20863
C         37.05053        56.15628        -3.22888
C         40.12980        14.84770        -2.31008
C         40.22609        15.78039        -1.25627
C         39.04872        16.53801        -0.76245
C         40.32425        18.69611        -0.49002
C         39.07213        17.94365        -0.47572
C         40.30923        20.16462        -0.64768
C         39.04462        20.88636        -0.38865
C         40.29363        22.94756         0.40316
C         39.10064        22.25870        -0.23717
C         40.42353        24.40841        -0.00009
C         39.15478        25.17899        -0.12134
C         40.37914        27.33636         0.13894
C         39.20268        26.64913        -0.00807
C         40.38286        28.79395         0.09459
C         39.16505        29.51042        -0.02542
C         40.38606        31.64010         0.11719
C         39.15080        30.92141         0.06805
C         40.41434        33.09125         0.11734
C         39.12464        33.79456         0.12854
C         40.38007        36.00904         0.11376
C         39.09382        35.28713         0.12719
C         40.29356        37.43317         0.08480
C         39.07091        38.12377         0.04542
C         40.25798        40.44697         0.06459
C         39.06473        39.56102        -0.32280
C         40.30732        41.75155        -0.77693
C         38.98642        42.52114        -0.62763
C         40.22079        44.62116         0.04676
C         38.99763        43.91976        -0.12268
C         40.21513        45.93019         0.59146
C         38.94864        46.46161         0.91256
C         40.26604        49.04290         0.54595
C         38.94548        48.51812         0.69346
C         40.39451        50.31020        -0.00960
C         39.25338        50.84428        -0.78596
C         40.34962        53.09959        -0.53596
C         39.19014        52.28985        -1.00761
C         40.44609        54.53125        -1.03774
C         39.42905        54.86998        -2.09801
C         40.74189        57.00754        -2.47502
C         39.47628        56.27973        -2.61685
C         40.92271        58.24389        -3.12716
C         42.56121        14.80139        -2.55946
C         41.28521        14.33100        -2.90242
C         42.70837        15.71602        -1.50528
C         41.53345        16.06326        -0.81971
C         42.82580        18.78154        -0.55907
C         41.56165        18.13824        -0.26472
C         42.88170        20.14489        -0.49706
C         41.61397        20.89952        -0.47793
C         42.90992        22.99637         0.24168
C         41.62671        22.23282         0.19772
C         42.89014        24.48822         0.31529
C         41.68983        25.14260         0.28059
C         42.92415        27.34947         0.57050
C         41.59391        26.59288         0.70027
C         42.90566        28.82855         0.37523
C         41.60259        29.52450         0.19701
C         42.90798        31.68307         0.36483
C         41.60817        30.92103         0.15095
C         42.84476        33.05933        -0.31343
C         41.58082        33.82576         0.00562
C         42.83831        35.97544        -0.18476
C         41.58617        35.27469        -0.00600
C         42.77573        37.43778        -0.43985
C         41.56518        38.19215         0.01131
C         42.82187        40.40084        -0.45233
C         41.58553        39.68751        -0.00572
C         42.79842        41.85965        -0.50894
C         41.53358        42.57259        -0.41628
C         42.69712        44.76393        -0.19385
C         41.47588        43.93056        -0.17606
C         42.75213        46.11598         0.44727
C         41.46365        46.70236         0.89735
C         42.75041        49.02227         0.98182
C         41.44319        48.28070         1.02002
C         42.77804        50.44722         0.60690
C         41.61099        51.06765         0.14568
C         42.76945        53.25158         0.12635
C         41.61906        52.47327        -0.11515
C         42.78015        54.62168        -0.32855
C         41.73745        55.20063        -1.04449
C         43.00617        57.27169        -1.49265
C         41.82448        56.49685        -1.68361
C         43.13487        58.49753        -2.17228
C         42.10857        58.96362        -2.99308
C         45.27162        15.82185        -1.21683
C         43.98498        16.51846        -1.35269
C         45.33909        18.68955        -0.78920
C         44.02402        18.01066        -0.99891
C         45.39138        20.06345        -0.52870
C         44.16251        20.87215        -0.57405
C         45.43826        22.97691         0.25376
C         44.17379        22.33193        -0.22859
C         45.42466        24.47488         0.38191
C         44.15263        25.22013         0.30736
C         45.39662        27.34832        -0.02170
C         44.18004        26.60650         0.27805
C         45.35371        28.77781        -0.23521
C         44.14990        29.52458        -0.04992
C         45.35343        31.62222        -0.40740
C         44.15225        30.92148        -0.09091
C         45.39526        33.10492        -0.28475
C         44.11198        33.85573        -0.06812
C         45.31189        36.01115        -0.49836
C         44.06248        35.32019        -0.28452
C         45.33044        37.51289        -0.21260
C         44.03762        38.21038        -0.60029
C         45.26772        40.38570        -0.86740
C         44.00134        39.70022        -0.55013
C         45.27071        41.90171        -0.81760
C         43.98794        42.56519        -0.54414
C         45.25522        44.71206        -0.09742
C         43.98498        44.03029        -0.46757
C         45.16358        46.20516        -0.19231
C         43.93541        46.82497         0.39380
C         45.27717        49.03409         0.46486
C         44.05237        48.24559         0.77782
C         45.22446        50.46358         0.72593
C         44.01275        51.17475         0.71214
C         45.15181        53.39483         0.95004
C         44.00559        52.63610         0.64035
C         45.00734        54.88160         0.90097
C         43.85802        55.50617         0.12122
C         45.10476        57.59934        -0.19264
C         44.02198        56.82442        -0.53674
C         46.45704        16.51596        -1.14653
C         47.76170        18.68327        -1.38705
C         46.52586        17.93399        -1.04391
C         47.80536        20.17373        -1.11826
C         46.72958        20.69410        -0.18530
C         47.92561        23.04715        -0.31732
C         46.73554        22.22872         0.04665
C         47.92352        24.43300        -0.24903
C         46.72934        25.22565         0.16544
C         47.80724        27.36263        -0.56202
C         46.62308        26.66397        -0.18163
C         47.77025        28.76455        -0.71775
C         46.55363        29.48801        -0.56662
C         47.75625        31.67565        -1.05702
C         46.54129        30.92722        -0.68177
C         47.68845        33.13391        -1.20517
C         46.56301        33.85040        -0.80046
C         47.66944        36.07937        -1.21536
C         46.47668        35.30329        -0.78716
C         47.74872        37.56100        -1.06298
C         46.55162        38.29336        -0.64516
C         47.79008        40.42591        -0.90214
C         46.56312        39.67431        -0.75416
C         47.76087        41.87065        -0.77173
C         46.56031        42.57535        -0.62004
C         47.79408        44.80961        -0.46863
C         46.56232        44.00793        -0.26781
C         47.73553        46.18758        -0.38632
C         46.45518        46.95702        -0.27558
C         47.71402        49.15751         0.04035
C         46.45193        48.39412         0.11150
C         47.74183        50.56219         0.57207
C         46.46637        51.19397         1.03713
C         47.83506        53.38768         1.29396
C         46.45568        52.71897         1.27952
C         48.02860        54.71170         1.74017
C         46.08193        55.84647         1.19224
C         46.08854        57.13329         0.73655
C         50.21640        18.74376        -1.56882
C         49.06611        18.02745        -1.53153
C         50.25674        20.19155        -1.43531
C         49.10378        20.86905        -1.10393
C         50.38465        23.00237        -0.86206
C         49.03493        22.37768        -1.12834
C         50.39998        24.49808        -0.72394
C         49.09985        25.22252        -0.60427
C         50.24600        27.31982        -1.22420
C         49.04785        26.60064        -0.70445
C         50.17566        28.79952        -1.45481
C         49.05568        29.55031        -0.77467
C         50.22560        31.64642        -1.62404
C         48.94431        30.98424        -1.23958
C         50.24389        33.14504        -1.66153
C         48.93022        33.86955        -1.57209
C         50.18282        36.01643        -0.83187
C         48.96177        35.35036        -1.43058
C         50.21534        37.52001        -1.08077
C         49.05942        38.25968        -1.05698
C         50.26298        40.42400        -1.00952
C         49.05068        39.72356        -1.00777
C         50.24715        41.90432        -1.03143
C         48.99682        42.63391        -0.76379
C         50.28910        44.73003        -0.56818
C         49.02750        44.03770        -0.66471
C         50.27686        46.20628        -0.52656
C         48.97485        46.99079        -0.47168
C         50.14217        48.93663         0.53841
C         48.98114        48.38892         0.03677
C         50.29564        50.35451         1.04747
C         49.02370        51.16256         1.06729
C         50.31701        53.26784         1.13912
C         49.04214        52.64674         1.11518
C         50.42268        54.62438         1.50110
C         49.28408        55.32491         1.85004
C         52.70931        20.24184        -1.97865
C         51.53083        20.90937        -1.59993
C         52.79422        23.02329        -1.54470
C         51.58749        22.30561        -1.37626
C         52.79361        24.49084        -1.47259
C         51.61904        25.19125        -1.14792
C         52.67420        27.35498        -1.80723
C         51.61619        26.68616        -0.98072
C         52.49686        28.64669        -2.19337
C         51.44109        29.53697        -1.73000
C         52.79670        31.76765        -2.03811
C         51.52984        30.90576        -1.65630
C         52.71350        33.18112        -1.44186
C         51.51127        33.88793        -1.38261
C         52.67277        36.02094        -0.80791
C         51.47775        35.29168        -1.09681
C         52.71448        37.42729        -0.79637
C         51.52296        38.18601        -1.20996
C         52.86087        40.40877        -0.84326
C         51.54991        39.71651        -1.18997
C         52.86302        41.89606        -0.72268
C         51.57531        42.66524        -0.87942
C         52.74729        44.75426        -0.09793
C         51.51264        44.06592        -0.44559
C         52.70372        46.14480         0.14173
C         51.44508        46.83457         0.11092
C         53.09238        49.09758         1.03182
C         51.23933        48.04265         0.74689
C         52.90523        50.51159         0.83568
C         51.60976        51.10930         0.93845
C         52.72994        53.24846         0.54994
C         51.55434        52.51992         0.86933
C         53.91517        20.92975        -2.07892
C         55.28752        23.01557        -1.97888
C         53.97729        22.31326        -1.86984
C         55.28581        24.52603        -1.95598
C         53.97818        25.20019        -1.81981
C         55.29802        27.41054        -1.75792
C         53.95006        26.63740        -2.02647
C         55.13805        28.82497        -1.20447
C         54.30678        29.78046        -2.03795
C         55.17960        31.65266        -0.85682
C         54.10033        31.06352        -1.63542
C         55.21553        33.12101        -0.74383
C         53.96156        33.89961        -1.10188
C         54.97320        35.87775         0.06032
C         53.89730        35.28323        -0.59296
C         54.92720        37.29341         0.36313
C         53.96259        38.10795        -0.39762
C         54.93165        40.21260         0.79701
C         54.04133        39.62524        -0.26589
C         55.06250        41.72688         0.75454
C         54.03958        42.55546        -0.04961
C         55.12210        44.66913         0.60008
C         53.96345        44.02183         0.14541
C         55.24628        46.11383         0.41162
C         53.96344        46.90806         0.17244
C         55.33581        49.08817         0.16278
C         54.07446        48.36837         0.41994
C         55.35799        50.53977         0.38327
C         54.08185        51.24628         0.50749
C         53.95704        52.64036         0.34579
C         57.63904        23.03910        -1.23025
C         56.51016        22.34133        -1.50827
C         57.69209        24.48638        -1.19153
C         56.49563        25.23888        -1.45832
C         57.54895        27.32051        -0.61139
C         56.45009        26.62178        -1.28356
C         57.56807        28.80323        -0.60005
C         56.41313        29.50645        -0.80109
C         57.37150        31.49679         0.37845
C         56.30490        30.92871        -0.52222
C         57.35745        32.99601         0.51877
C         56.25947        33.74092         0.09750
C         57.11017        35.68935         1.29475
C         56.14685        35.11667         0.45109
C         56.83097        37.02152         1.87876
C         55.83050        37.90257         1.21103
C         56.67369        39.75209         2.58031
C         55.77639        39.33309         1.51066
C         56.81498        42.06742         2.57688
C         55.99910        42.56494         1.56874
C         57.34233        44.64082         1.70787
C         56.17995        43.95285         1.24808
C         57.43869        46.12602         1.70089
C         56.24519        46.93166         1.21507
C         57.78268        49.01901         1.04152
C         56.61051        48.27505         0.57625
C         57.77287        50.40369         0.87122
C         56.59636        51.14246         0.58131
C         60.17690        24.51438        -0.96443
C         58.90309        25.14650        -0.86525
C         60.14280        27.27942        -0.25317
C         58.87403        26.54347        -0.40606
C         60.12406        28.76878        -0.11429
C         58.84395        29.52201        -0.36163
C         59.90724        31.62040         0.75550
C         58.75162        30.96614         0.04936
C         59.64198        32.89162         1.49782
C         58.42926        33.61176         1.23260
C         59.29773        35.54656         2.50923
C         58.27163        34.96114         1.68646
C         59.16368        36.91297         2.99190
C         57.88359        37.61493         2.76519
C         58.80502        39.62102         3.89667
C         57.78058        39.06183         3.04498
C         59.00564        42.03372         3.78367
C         58.05446        42.67164         2.94142
C         59.72301        44.51365         2.51978
C         58.35878        43.94998         2.38441
C         59.98019        45.98509         2.13572
C         58.74393        46.82278         1.92527
C         60.10004        48.85939         1.96493
C         58.90018        48.28165         1.62486
C         61.34106        25.20944        -0.72635
C         61.32484        26.60163        -0.41474
C         61.16437        29.46666         0.67720
C         61.06701        30.75510         1.06956
C         60.60505        33.48495         2.30801
C         60.42135        34.77514         2.82784
C         60.14701        37.58421         3.68875
C         59.94342        38.90408         4.19401
C         60.27663        42.62104         4.01492
C         60.65655        43.78144         3.37751
C         61.16684        46.73422         2.58704
C         61.19360        48.09112         2.50093
O         43.31515        37.73850        -1.77976
O         51.65394        38.97056        -2.44156
O         32.45126        37.78595         2.20785
O         37.45105        55.11932        -0.69650
O         59.62907        31.83205        -0.68922
O         43.95904        17.55895        -2.40027
O         31.93843        22.57829        -0.93012
O         28.32818        44.12937        -1.90713
O         25.88713        29.30368        -0.45414
O         50.19069        32.38292        -2.92300
O         34.45820        37.31300        -0.95606
O         33.74878        30.17216        -0.72721
O         43.08903        28.25664         1.73594
O         46.23837        24.93194         1.50827
O         41.66851        16.86876         0.32304
O         49.55385        50.55883         2.29850
O         35.29632        50.11381         0.52044
O         32.53452        35.45589        -0.55741
O         31.35023        24.65873         2.30058
O         53.27756        41.25433        -1.95841
O         27.67986        36.18749        -0.55946
O         47.43131        19.70519        -2.43652
O         38.82326        47.59096         1.73284
O         55.28854        42.12855        -0.64849
O         40.98195        20.80165        -1.80096
O         34.85269        26.92738         2.06303
O         37.50792        33.18290         1.97936
O         41.83092        38.96108         1.25599
O         24.51457        26.73068        -0.24057
O         47.41376        36.93354        -2.38577
O         55.46536        23.77967        -3.22003
O         49.90229        27.86839        -2.54653
O         37.54187        35.85046         2.01952
O         23.89156        34.60775         2.62358
O         38.85217        34.54076        -1.11955
O         42.41432        22.27044         1.43362
O         53.47093        29.23974        -3.00458
O         41.37815        47.40465         2.16512
O         54.87895        46.52312        -0.91319
O         58.66083        40.88990         4.49819
O         37.65649        28.00083        -1.37968
O         57.91631        26.76918         0.69851
O         50.58797        23.58081         0.45329
O         54.83167        27.12558        -3.08503
O         49.73711        46.83886        -1.72818
O         47.72359        50.33307        -0.87311
O         44.95270        33.51348         1.07219
O         56.69500        36.92063         3.34938
O         37.35894        26.37773         1.91953
O         28.30066        30.87264         2.91471
O         27.65412        42.14462         1.37014
O         29.81040        41.57336        -1.55068
O         43.82579        55.45202         1.59799
O         29.45418        50.43512        -2.83787
O         46.13922        22.41061         1.39035
O         52.11555        48.41484         1.76398
O         31.23807        31.12183         2.93879
O         54.70449        38.93599        -1.37149
O         35.96804        44.13164         1.62316
O         57.81660        46.60542         3.06135
O         28.17095        49.85518         0.46251
O         46.42113        51.74953         2.38158
O         35.28635        32.71436        -0.79824
O         39.93670        54.24711         0.29302
O         50.97712        42.45743        -2.18403
O         37.09855        22.69326        -1.57269
O         48.94569        34.77778        -2.75197
O         45.92090        44.22519         1.09849
O         44.20330        21.96118        -1.63075
O         56.25765        48.53239        -0.79995
O         55.06646        33.73545        -2.06742
O         43.58621        48.64163         2.10716
O         31.76316        51.38656        -3.30427
O         56.39673        40.93890         3.26315
O         43.30053        44.73440        -1.54702
O         32.33966        40.21876         1.91086
O         31.07764        47.97241        -2.50141
O         27.94238        23.68662         2.70000
O         38.99504        49.94294        -1.95215
O         38.46990        39.71694        -1.65283
O         59.82142        29.34510        -1.44122
O         28.73229        29.33527        -0.30654
O         39.92404        24.72057        -1.33133
O         46.98277        55.50240         2.19574
O         60.25528        44.93178         1.18070
O         45.21326        41.16523        -2.10210
O         38.12567        42.34326        -1.80284
O         33.31556        25.13867        -0.89019
O         32.43782        33.43826         2.69036
O         45.58626        46.74010        -1.47835
O         57.09412        30.95378         1.71688
H         56.19588        31.24210         1.98393
O         35.62367        19.75590         1.81148
H         35.76745        20.59203         2.30159
O         36.61749        50.18362        -2.90285
H         37.53001        50.18856        -3.27419
O         25.22957        42.01945         2.17206
H         26.14442        41.94621         2.53677
O         51.91969        26.92624         0.43338
H         51.35253        26.33391         0.97240
O         27.68564        39.88939        -1.61688
H         28.53764        40.17904        -2.02540
O         49.93556        35.87379         0.62403
H         50.75253        36.14491         1.09496
O         29.64961        37.71921        -1.08205
H         29.16066        36.93519        -1.43090
O         22.74883        29.09673         3.09776
H         22.66468        30.06929         3.20147
O         39.98025        22.92586         1.81661
H         40.83578        22.94272         2.30763
O         39.80016        53.98694        -3.21383
H         40.68998        54.26738        -3.51703
O         47.13409        20.11007         1.09165
H         46.70228        20.64172         1.80123
O         40.03674        40.84769         1.43260
H         40.50789        40.19555         2.00437
O         23.85763        39.75111         2.39484
H         24.16571        40.66957         2.61536
O         34.96871        19.04250        -1.70643
H         34.93383        18.20598        -2.21427
O         41.30876        26.47517         2.12360
H         41.74881        27.23804         2.56888
O         27.75639        33.34507         3.38497
H         28.17812        32.55580         3.80172
O         29.67527        37.77663         2.55706
H         30.42233        37.67736         3.18801
O         55.48454        47.28687         2.41123
H         56.13272        47.35288         3.15462
O         42.80741        32.78565        -1.74227
H         42.49741        33.58694        -2.21480
O         43.01245        31.89315         1.79008
H         43.11251        31.02027         2.22490
O         33.61387        39.63986        -1.50921
H         34.03590        38.87750        -1.97348
O         52.79497        31.90280        -3.46579
H         51.90074        32.22842        -3.73090
O         37.46203        53.92548        -4.05697
H         38.32665        54.30343        -4.33510
O         32.50959        44.75457         1.82040
H         33.37993        44.95084         2.23038
O         45.32927        37.59774         1.25749
H         45.98573        36.95985         1.60936
O         40.50212        41.39066        -2.14964
H         39.61062        41.34881        -2.57369
O         49.51672        29.64755         0.62466
H         48.78687        30.03168         1.15612
O         54.35693        28.68813         0.03686
H         54.92262        28.24685         0.70664
O         48.73891        22.69963        -2.52920
H         48.14179        22.00922        -2.89307
H         23.04109        23.40447         2.27483
H         20.96652        24.67885         2.69263
H         20.92077        27.15406         2.45744
H         20.73553        28.86938         0.83905
H         20.73595        31.29472         0.43172
H         20.65855        33.27382         0.73686
H         20.66886        35.67841         0.56058
H         20.71810        37.61693         0.22174
H         20.80552        39.98519        -0.26749
H         20.76649        41.88631        -0.37045
H         20.77745        44.29236        -0.62816
H         20.76503        46.20833        -0.44250
H         22.92187        49.91207        -0.61849
H         20.79977        48.66663        -0.56334
H         24.50118        22.48163         1.13550
H         24.53422        50.78201        -1.13194
H         26.58015        21.24222         0.89485
H         26.59853        51.97410        -1.55398
H         30.39411        19.00126         1.06342
H         28.30669        20.21762         1.30358
H         30.64701        54.12012        -1.62231
H         28.55645        53.06928        -1.03849
H         32.13233        18.10085         1.01193
H         32.21493        54.91270        -2.56560
H         34.12261        16.89373         0.35607
H         34.36151        55.94539        -3.19477
H         37.76087        14.80736        -0.97314
H         35.66841        16.01632        -0.56053
H         38.34518        57.86578        -3.49112
H         36.24011        56.79570        -2.84026
H         39.14512        14.55871        -2.70371
H         40.12482        58.65134        -3.76204
H         43.43780        14.48102        -3.13932
H         41.18631        13.61065        -3.72611
H         44.04247        59.10470        -2.05966
H         42.22722        59.91859        -3.52326
H         45.27914        14.72243        -1.20653
H         45.23383        58.60613        -0.61051
H         47.39636        15.94357        -1.16950
H         46.87251        57.81994         1.08015
H         51.16333        18.19760        -1.67164
H         49.11423        16.92946        -1.55681
H         51.39954        55.11363         1.59227
H         49.34122        56.35489         2.22285
H         52.70349        19.16445        -2.18555
H         52.67047        54.33603         0.41516
H         54.82429        20.37973        -2.35768
H         54.82671        53.24676         0.05885
H         58.52901        22.48367        -0.90271
H         56.49716        21.25011        -1.37395
H         58.67230        50.98142         1.12815
H         56.65265        52.23679         0.67575
H         60.23658        23.46117        -1.27055
H         60.25979        49.93553         1.81306
H         62.30981        24.70247        -0.83070
H         62.28206        27.13342        -0.32062
H         62.03757        28.87791         0.99715
H         61.87064        31.17247         1.69458
H         61.54139        32.95761         2.53617
H         61.20992        35.19253         3.46815
H         61.11238        37.10364         3.89689
H         60.72474        39.36468         4.81229
H         60.98433        42.10256         4.67614
H         61.67392        44.17204         3.51456
H         62.05735        46.17954         2.91328
H         62.10100        48.63385         2.80099
