         600
 CSIRO Nanostructure Databank - Neutral Graphene Oxide Data Set
C         23.25207        27.50449         0.81950
C         23.24947        28.90967         0.71279
C         23.19767        31.83321         0.28982
C         23.15511        33.19051         0.00522
C         23.00197        35.81764        -1.32296
C         22.97835        37.05114        -1.97623
C         22.96664        40.65447        -1.83795
C         22.93514        41.78029        -1.06277
C         23.09598        44.29306         0.56741
C         23.16564        45.45106         1.32233
C         25.40163        24.56073         0.07721
C         24.32257        25.30409         0.41601
C         25.41091        27.42608        -0.34751
C         24.28474        26.74002         0.29485
C         25.50941        28.88387        -0.20699
C         24.35295        29.61486         0.20311
C         25.51130        31.71082        -0.48024
C         24.34827        31.05921         0.02534
C         25.46748        33.10939        -0.71796
C         24.28359        33.84869        -0.52818
C         25.43979        35.97487        -1.20566
C         24.23183        35.23826        -0.99061
C         25.41488        37.33602        -1.63803
C         24.16453        37.76228        -2.15642
C         25.43542        40.41629        -1.67859
C         24.20269        40.02805        -2.19025
C         25.48730        41.82968        -1.27835
C         24.15481        42.56676        -0.92410
C         25.50985        44.35433         0.17470
C         24.25140        43.74206        -0.02993
C         25.57994        45.57906         0.90683
C         24.39870        46.12664         1.48504
C         25.67812        48.01060         2.34521
C         24.48249        47.34841         2.21762
C         27.95022        23.17522         0.40509
C         27.93379        24.52109         0.02102
C         26.66116        25.09322        -0.57698
C         27.94503        27.36062        -0.64987
C         26.67590        26.61865        -0.68670
C         27.90981        28.76271        -0.76905
C         26.70689        29.52708        -0.57504
C         27.94826        31.63725        -0.93637
C         26.73443        30.96470        -0.69223
C         27.95853        33.07006        -1.27259
C         26.65426        33.82162        -1.21670
C         27.89990        35.98872        -1.24715
C         26.69811        35.29552        -1.14068
C         27.86904        37.43752        -1.35541
C         26.63596        38.13825        -1.59460
C         27.86640        40.27269        -1.35350
C         26.63516        39.58329        -1.57647
C         27.92780        41.69093        -1.00903
C         26.74027        42.40987        -0.79174
C         27.98086        44.38875        -0.06305
C         26.74286        43.72418        -0.25397
C         28.01923        45.71561         0.48441
C         26.82142        46.27609         1.04328
C         28.12255        48.21809         1.82506
C         26.87376        47.50315         1.75120
C         28.25065        49.42505         2.55665
C         30.36010        23.21352         0.73020
C         29.13168        22.53351         0.76585
C         30.36262        24.59931         0.38179
C         29.14331        25.25950         0.02215
C         30.39954        27.35353        -0.31018
C         29.17457        26.65935        -0.35653
C         30.48225        28.74336        -0.78094
C         29.15976        29.49236        -1.01239
C         30.41670        31.66732        -0.89105
C         29.19095        30.95835        -0.93513
C         30.41277        33.11960        -0.95278
C         29.20786        33.83205        -1.14897
C         30.38306        35.96009        -1.05541
C         29.17149        35.25782        -1.17773
C         30.35466        37.44496        -0.82618
C         29.09558        38.15110        -1.28672
C         30.35896        40.30356        -1.46233
C         29.08744        39.54885        -1.33677
C         30.40771        41.71872        -1.08949
C         29.17481        42.37006        -0.80870
C         30.44288        44.45125        -0.34504
C         29.19896        43.73722        -0.40789
C         30.45306        45.83732         0.02618
C         29.22610        46.43876         0.50085
C         30.45744        48.50220         1.05618
C         29.26318        47.73387         1.12064
C         30.55968        49.68237         1.80451
C         29.44410        50.11093         2.57560
C         32.86070        20.47554         1.44519
C         31.65645        21.15119         1.31438
C         32.84545        23.21671         0.82096
C         31.61523        22.52123         0.97392
C         32.83601        24.62548         0.57424
C         31.60078        25.31634         0.37507
C         32.82372        27.46240         0.19221
C         31.60717        26.71296         0.09809
C         32.80413        28.87794         0.02032
C         31.66577        29.55269        -0.46142
C         32.86102        31.72485        -0.45367
C         31.64745        30.97270        -0.62721
C         32.86586        33.14877        -0.61900
C         31.63757        33.84303        -0.84832
C         32.85937        35.99378        -0.84010
C         31.62016        35.27105        -0.91622
C         32.85751        37.43418        -1.01144
C         31.65837        38.10751        -1.18880
C         32.90992        40.30929        -1.21845
C         31.67389        39.54794        -1.45303
C         32.87609        41.70001        -1.17373
C         31.63608        42.40892        -1.02751
C         32.89157        44.54792        -0.63310
C         31.65750        43.81151        -0.68788
C         32.87696        45.96000        -0.36473
C         31.64268        46.59162        -0.04677
C         32.76222        48.98115        -0.03723
C         31.46623        48.09904        -0.01369
C         32.93982        49.94350         1.12168
C         31.81068        50.43338         1.82438
C         33.07018        52.39342         2.53556
C         31.91622        51.63126         2.56404
C         35.39947        19.00624         1.53273
C         35.35245        20.39635         1.26358
C         34.09633        21.11839         1.22075
C         35.31715        23.20035         0.67493
C         34.09283        22.51447         0.91524
C         35.30759        24.61981         0.46718
C         34.06491        25.33262         0.48170
C         35.30690        27.43583         0.33577
C         34.06582        26.75688         0.37213
C         35.33520        28.88997         0.46139
C         34.00220        29.66298         0.32424
C         35.30258        31.75867        -0.00832
C         34.06318        31.07249        -0.07303
C         35.31836        33.18414        -0.25580
C         34.08615        33.87262        -0.51272
C         35.32478        36.02027        -0.69732
C         34.08124        35.29832        -0.68197
C         35.33943        37.43700        -0.84619
C         34.11574        38.16222        -1.01190
C         35.37318        40.30127        -0.96993
C         34.13533        39.57151        -1.08427
C         35.38829        41.71393        -0.99362
C         34.14754        42.47696        -1.38318
C         35.33985        44.60307        -0.80496
C         34.12904        43.89491        -0.86907
C         35.30987        46.03210        -0.67551
C         34.10131        46.70581        -0.45428
C         35.34356        48.85226         0.01574
C         34.06399        48.23193        -0.54616
C         35.37509        50.08202         0.66024
C         34.16157        50.66653         1.20219
C         35.41243        52.73528         1.76128
C         34.21026        51.92866         1.84686
C         35.42068        54.10262         2.09266
C         37.80529        18.93437         1.14036
C         36.58539        18.29845         1.47013
C         37.79950        20.34794         0.93644
C         36.56992        21.07460         0.99038
C         37.77886        23.14860         0.43095
C         36.56801        22.48474         0.70049
C         37.74973        24.54350        -0.13441
C         36.51750        25.31884         0.23931
C         37.78108        27.45601         0.07432
C         36.53314        26.73139         0.20188
C         37.79647        28.87196         0.05004
C         36.57020        29.61966         0.18168
C         37.81435        31.73468         0.18160
C         36.52845        31.01737         0.13089
C         37.80946        33.23643        -0.01434
C         36.53027        33.91189        -0.28616
C         37.80234        36.01020        -0.62208
C         36.55131        35.30732        -0.55107
C         37.80824        37.42233        -0.73985
C         36.57881        38.14443        -0.81236
C         37.82529        40.28381        -0.81660
C         36.59423        39.57220        -0.85395
C         37.82992        41.70804        -0.80557
C         36.60093        42.43074        -0.86255
C         37.83229        44.55234        -0.75608
C         36.61121        43.87871        -0.84737
C         37.92203        46.03663        -1.02525
C         36.59058        46.78559        -0.86145
C         37.89094        48.82336         0.04486
C         36.61282        48.23063        -0.39893
C         37.87190        50.13903         0.56333
C         36.62805        50.77977         0.85561
C         37.84052        52.87549         1.36647
C         36.62363        52.12200         1.32539
C         37.81379        54.27173         1.65616
C         36.58240        54.86335         1.99879
C         40.25446        16.04821         1.08372
C         39.07413        16.76081         1.14035
C         40.21096        18.87239         0.61857
C         39.03363        18.18981         0.96014
C         40.23602        20.30035         0.52488
C         39.02104        21.03618         0.66495
C         40.25102        23.14423         0.23915
C         39.02285        22.45102         0.45172
C         40.25575        24.59557         0.11455
C         39.03277        25.30584         0.04868
C         40.26179        27.41788        -0.08198
C         39.02105        26.71766         0.01566
C         40.26736        28.84056        -0.21358
C         39.03669        29.57571        -0.12441
C         40.23024        31.71123        -0.42283
C         39.05611        30.99744        -0.11856
C         40.26204        33.14246        -0.51476
C         39.06307        33.89296        -0.41528
C         40.28660        35.99511        -0.72841
C         39.04690        35.29198        -0.60319
C         40.28343        37.42126        -0.80432
C         39.05248        38.13589        -0.79223
C         40.29477        40.26158        -0.88776
C         39.05777        39.55648        -0.81943
C         40.29886        41.70191        -0.81043
C         39.07352        42.41527        -0.75089
C         40.30542        44.54274        -0.49747
C         39.06966        43.84229        -0.68485
C         40.31640        45.96642        -0.25945
C         39.11626        46.70382        -0.35061
C         40.33874        48.73421         0.37865
C         39.10662        48.08399        -0.00539
C         40.33828        50.11783         0.72890
C         39.10678        50.81885         0.84138
C         40.29245        52.92244         1.41182
C         39.08230        52.20680         1.17936
C         40.29268        54.32569         1.52730
C         39.04667        55.03546         1.57614
C         40.24679        57.14621         1.32642
C         39.05245        56.43782         1.52298
C         42.71092        16.01796         0.77640
C         41.47895        16.68018         0.75344
C         42.71658        18.85383         0.55608
C         41.43917        18.08653         0.20559
C         42.66554        20.23413        -0.05518
C         41.44120        21.00403         0.24087
C         42.73980        23.10201         0.00581
C         41.47209        22.41465         0.14376
C         42.76752        24.56423         0.37219
C         41.48271        25.29474         0.07645
C         42.74049        27.41368        -0.24300
C         41.49670        26.70252        -0.08249
C         42.72975        28.81299        -0.47194
C         41.48751        29.51150        -0.46062
C         42.76930        31.70515        -0.88486
C         41.42883        30.94152        -0.77443
C         42.74667        33.15184        -0.67338
C         41.51166        33.84680        -0.66900
C         42.75561        35.99263        -0.73967
C         41.51187        35.27762        -0.70807
C         42.75853        37.40183        -0.88491
C         41.51613        38.13101        -0.91872
C         42.75882        40.29053        -1.35149
C         41.50373        39.54216        -0.99476
C         42.76420        41.70224        -0.82468
C         41.53601        42.40298        -0.69363
C         42.73888        44.49360        -0.10029
C         41.52348        43.81952        -0.44109
C         42.75981        45.86363         0.17325
C         41.54843        46.61291         0.10459
C         42.80631        48.69834         0.64720
C         41.55782        48.00974         0.39350
C         42.79028        50.10008         0.94895
C         41.57830        50.77241         1.05534
C         42.86204        52.96430         1.66357
C         41.53522        52.16343         1.55086
C         42.78127        54.42309         1.53775
C         41.54112        55.06342         1.50091
C         42.68810        57.19051         0.91566
C         41.47744        56.49266         1.29547
C         43.91908        16.67695         0.50125
C         45.19961        18.77245         0.12885
C         43.98913        18.07280         0.29332
C         45.25555        20.18162        -0.44841
C         43.93731        20.95661        -0.38910
C         45.20145        23.12427        -0.20142
C         43.94327        22.42971        -0.20572
C         45.21423        24.56060        -0.21094
C         44.00297        25.28556        -0.09879
C         45.21855        27.39582        -0.44834
C         43.98689        26.68984        -0.25005
C         45.21944        28.81573        -0.56412
C         43.98543        29.53060        -0.60358
C         45.21873        31.67199        -0.54235
C         44.00478        30.94511        -0.67525
C         45.19071        33.09517        -0.45269
C         43.98439        33.83820        -0.52089
C         45.20281        36.00535        -0.54945
C         43.99100        35.28357        -0.57062
C         45.22736        37.40626        -0.75352
C         44.00057        38.12004        -0.91251
C         45.23246        40.23298        -0.93150
C         44.01532        39.53221        -1.02168
C         45.23163        41.67912        -0.76816
C         43.98577        42.33828        -0.56902
C         45.31770        44.43535         0.07424
C         43.97604        43.69540        -0.01431
C         45.29626        45.89237         0.15973
C         44.03137        46.51672         0.70244
C         45.27901        48.72834         0.51373
C         44.03063        48.01372         0.59319
C         45.30484        50.12275         0.73889
C         44.09001        50.75325         1.38247
C         45.33726        52.97385         1.22649
C         44.06969        52.25415         1.27072
C         45.34374        54.49276         1.37600
C         44.04326        55.26828         1.67549
C         43.89701        56.59027         0.96817
C         47.63138        18.85375         0.35067
C         46.45991        18.13642         0.31141
C         47.65055        20.29070         0.26827
C         46.45741        20.97915         0.00102
C         47.68061        23.10350        -0.09481
C         46.44613        22.39990        -0.12469
C         47.72662        24.51685        -0.61366
C         46.43992        25.27725        -0.39629
C         47.73067        27.36406        -0.87753
C         46.44449        26.66034        -0.49709
C         47.70763        28.84441        -0.59383
C         46.47268        29.53824        -0.58085
C         47.70584        31.67610        -0.49107
C         46.46403        30.96151        -0.50638
C         47.72373        33.09382        -0.43734
C         46.45734        33.79668        -0.21199
C         47.73844        35.98044        -0.60972
C         46.46926        35.31757        -0.25719
C         47.72561        37.39859        -0.78553
C         46.47869        38.11504        -0.76963
C         47.70914        40.28777        -0.79609
C         46.45176        39.52245        -0.82999
C         47.66684        41.70345        -1.32425
C         46.44826        42.40479        -0.77342
C         47.71487        44.52213        -0.59243
C         46.50487        43.76807        -0.46385
C         47.70599        45.92009        -0.36647
C         46.46818        46.60860        -0.04634
C         47.69471        48.76352         0.00000
C         46.48391        48.04512         0.14654
C         47.69600        50.18401         0.14296
C         46.49296        50.86302         0.51351
C         47.67778        53.02894         0.40068
C         46.52350        52.29194         0.67719
C         47.61037        54.47695         0.39792
C         46.50842        55.16968         0.77974
C         50.07333        20.38646         0.85495
C         48.87057        21.02775         0.47608
C         50.12206        23.16985         0.37773
C         48.88396        22.43894         0.23826
C         50.14246        24.59129         0.19757
C         48.95407        25.28995        -0.17914
C         50.16688        27.41542        -0.13530
C         48.96033        26.67222        -0.32368
C         50.17348        28.83412        -0.29014
C         48.93182        29.54083        -0.47340
C         50.17075        31.69443        -0.44973
C         48.93876        30.96866        -0.47447
C         50.17513        33.10700        -0.57445
C         48.93088        33.81782        -0.56138
C         50.16748        35.91189        -1.24941
C         48.92091        35.24800        -0.70825
C         50.18133        37.40249        -1.05445
C         48.97449        38.08065        -0.92918
C         50.17875        40.25547        -1.49414
C         48.99800        39.55426        -0.86522
C         50.18076        41.73262        -1.17045
C         48.97081        42.42712        -1.07857
C         50.18237        44.53940        -0.78190
C         48.95439        43.82861        -0.83891
C         50.17067        45.96072        -0.61078
C         48.93412        46.65256        -0.42582
C         50.15372        48.79190        -0.34244
C         48.93131        48.06983        -0.26562
C         50.14621        50.22534        -0.24457
C         48.91402        50.91943        -0.02039
C         50.12689        53.03881        -0.09267
C         48.90559        52.34073         0.07339
C         51.25321        21.09084         0.98519
C         52.55265        23.21935         0.90096
C         51.31057        22.48774         0.74910
C         52.56868        24.62943         0.72241
C         51.35589        25.31855         0.38489
C         52.59983        27.45793         0.33198
C         51.37162        26.73003         0.20092
C         52.61561        28.86687         0.11479
C         51.39462        29.55986        -0.16479
C         52.63056        31.70132        -0.23950
C         51.40152        30.98184        -0.29256
C         52.64484        33.13107        -0.41190
C         51.42332        33.83230        -0.60854
C         52.64745        35.96441        -0.78694
C         51.44002        35.23417        -0.81877
C         52.66559        37.40085        -0.94683
C         51.43541        38.12301        -1.07397
C         52.67453        40.25282        -1.09178
C         51.45973        39.53143        -1.16108
C         52.66606        41.69264        -1.06125
C         51.42117        42.41629        -1.04177
C         52.65590        44.54471        -0.81967
C         51.41824        43.83159        -0.88728
C         52.64620        45.96612        -0.70614
C         51.40176        46.67651        -0.60920
C         52.63025        48.81977        -0.53031
C         51.39212        48.09588        -0.50069
C         52.62100        50.24124        -0.47440
C         51.36339        50.95069        -0.34957
C         51.31573        52.36607        -0.29279
C         54.94425        23.27059         1.38616
C         53.76524        22.56588         1.22620
C         54.99163        24.67473         1.22690
C         53.79003        25.35896         0.88100
C         55.01673        27.51254         0.84742
C         53.80197        26.77726         0.67920
C         55.05323        28.91129         0.58364
C         53.84626        29.59088         0.18475
C         55.10537        31.71613        -0.17982
C         53.84055        30.98810        -0.06234
C         55.11072        33.17614        -0.22306
C         53.87321        33.86151        -0.39158
C         55.12139        35.98502        -0.60279
C         53.87914        35.27454        -0.57329
C         55.13666        37.39527        -0.81754
C         53.89526        38.10717        -0.94089
C         55.14274        40.25294        -0.99063
C         53.90789        39.53774        -1.01144
C         55.13400        41.67801        -0.95475
C         53.89043        42.39687        -0.96206
C         55.11999        44.54136        -0.78246
C         53.88907        43.82923        -0.86366
C         55.11242        45.96553        -0.70426
C         53.87733        46.67888        -0.67125
C         55.10303        48.82750        -0.59080
C         53.87256        48.11200        -0.60036
C         55.05939        50.24229        -0.56160
C         53.85920        50.92585        -0.51097
C         57.42836        24.79009         1.80037
C         56.21964        25.42025         1.42747
C         57.39524        27.58842         1.52166
C         56.21078        26.83683         1.25755
C         57.38142        29.01064         1.38467
C         56.25916        29.63837         0.83254
C         57.50039        31.87724         0.72463
C         56.38175        31.02433         0.34911
C         57.54441        33.20916         0.28590
C         56.33222        33.87300        -0.14937
C         57.58140        35.99207        -0.39533
C         56.34332        35.28769        -0.36741
C         57.59007        37.36229        -0.77230
C         56.37927        38.09028        -0.91476
C         57.59923        40.26080        -1.02348
C         56.38845        39.53664        -1.01676
C         57.60672        41.68427        -0.87410
C         56.36413        42.39717        -0.86462
C         57.59316        44.53092        -0.69134
C         56.36099        43.82057        -0.78125
C         57.58475        45.96122        -0.63139
C         56.35155        46.68355        -0.64556
C         57.60567        48.78207        -0.53537
C         56.35908        48.10565        -0.59661
C         58.59125        25.52018         2.01890
C         59.79268        27.69265         2.15029
C         58.59583        26.92142         1.90048
C         59.78364        29.04917         2.13703
C         58.55114        29.79536         1.84104
C         59.85830        32.06706         1.50212
C         58.59692        31.31333         1.52799
C         59.92883        33.29712         0.93072
C         58.76720        33.96765         0.38715
C         60.04404        36.04554        -0.14335
C         58.80401        35.30928        -0.04651
C         60.09716        37.30022        -0.65657
C         58.87714        38.00870        -1.05717
C         60.11077        40.31690        -0.97354
C         58.87937        39.56078        -1.20986
C         60.07351        41.65287        -0.74267
C         58.83702        42.39727        -0.75317
C         60.04973        44.57458        -0.57035
C         58.83450        43.82144        -0.66338
C         60.04183        45.94418        -0.52230
C         58.81416        46.67228        -0.55523
C         58.79908        48.08806        -0.51152
O         44.70523        43.77982         1.26296
O         45.68604        53.66049         2.53040
O         43.05428        20.43210        -1.45094
O         36.55379        47.85590        -1.84240
O         46.46922        34.60960         1.02509
O         56.06850        31.10117        -1.09061
O         58.93645        38.66345        -2.36589
O         48.53130        40.11404         0.40451
O         58.20341        30.81024         2.85615
O         37.90823        32.64043         1.33793
O         32.52481        50.05245        -0.95764
O         42.00967        31.28830        -2.07267
O         25.74779        27.02001        -1.73697
O         34.59880        29.38809         1.62831
O         24.82836        42.74624        -2.21003
O         42.18601        52.36415         2.85664
O         27.18442        33.33819        -2.50391
O         29.95048        28.95788        -2.12434
O         24.09539        38.88162        -2.98931
O         31.03036        39.95649        -2.72808
O         30.77940        48.36525        -1.26933
H         31.15344        49.24327        -1.56669
O         47.85159        24.40176        -2.08847
H         48.60531        23.80127        -2.27454
O         30.29307        37.59676         0.65693
H         31.02594        37.06299         1.03382
O         42.73882        40.42089        -2.82666
H         42.72226        39.51360        -3.19918
O         44.03480        46.24474         2.14992
H         44.21838        45.27612         2.24763
O         34.24924        42.62876        -2.85135
H         34.04832        41.75749        -3.25537
O         37.63908        24.34774        -1.60531
H         36.82200        23.82878        -1.76717
O         34.10550        48.48785        -1.96833
H         33.56172        49.31983        -2.08250
O         50.10841        35.70433        -2.72013
H         49.40286        36.29006        -3.06937
O         47.83425        27.23975        -2.33631
H         47.81626        26.26981        -2.53751
O         44.22028        50.47956         2.82492
H         43.49485        50.98746         3.26576
O         44.10714        55.60410         3.09757
H         44.48230        54.81180         3.54935
O         47.47941        41.59238        -2.76586
H         47.46234        42.49688        -3.14160
O         38.26136        46.09534        -2.44852
H         37.84285        46.91737        -2.80102
O         41.40056        17.97354        -1.24611
H         40.59040        17.47814        -1.48728
O         42.70838        19.09831         1.99084
H         42.71236        18.22767         2.44251
O         49.99823        40.11505        -2.93878
H         50.76490        40.53659        -3.38029
O         26.63347        24.57981        -1.94220
H         26.06731        25.20134        -2.45599
O         45.52355        19.94657        -1.87222
H         44.64490        19.76951        -2.28583
O         42.87133        24.57365         1.85769
H         42.88775        25.51341         2.13970
H         22.40078        27.00136         1.30075
H         22.36480        29.45299         1.06968
H         22.29698        31.35498         0.69743
H         22.22774        33.74821         0.19426
H         22.06607        35.26103        -1.18267
H         22.04257        37.45137        -2.38664
H         22.03926        40.11930        -2.08553
H         21.99363        42.11638        -0.60801
H         22.12070        43.80972         0.41901
H         22.25586        45.87115         1.77436
H         25.32232        23.46837         0.17145
H         23.43537        24.80810         0.83957
H         25.70347        48.95596         2.90327
H         23.56906        47.76095         2.67007
H         27.02431        22.58639         0.38965
H         27.40314        49.82023         3.13188
H         29.08774        21.47035         1.03520
H         29.50541        51.02612         3.17768
H         32.83156        19.40961         1.70643
H         30.72575        20.59153         1.47513
H         33.09667        53.34997         3.07374
H         31.05768        52.01417         3.12962
H         34.47895        18.45996         1.77640
H         34.49088        54.59789         2.40258
H         36.55885        17.21879         1.66689
H         36.53553        55.93399         2.24065
H         40.25716        14.97643         1.33339
H         38.15373        16.22361         1.40278
H         40.21074        58.23554         1.18025
H         38.10574        56.99406         1.55166
H         42.73493        14.94387         1.01577
H         42.59068        58.21197         0.51712
H         44.83320        16.06968         0.44827
H         44.79029        57.14306         0.64651
H         48.56948        18.30862         0.51710
H         46.50312        17.05556         0.50696
H         48.46541        55.04191         0.00226
H         46.49814        56.26183         0.66201
H         50.08448        19.30821         1.05975
H         50.14980        54.13458        -0.03143
H         52.15537        20.54421         1.28777
H         52.23707        52.95427        -0.39305
H         55.85464        22.71294         1.64219
H         53.79001        21.47654         1.35816
H         55.99003        50.82438        -0.57366
H         53.88600        52.02288        -0.48242
H         57.46681        23.69972         1.92355
H         57.63553        49.87886        -0.49702
H         59.51761        25.00003         2.30198
H         60.71758        27.15002         2.39579
H         60.69167        29.60939         2.39985
H         60.74314        31.64184         1.99582
H         60.89032        33.82804         0.95565
H         60.98517        35.55191         0.13399
H         61.07029        37.78649        -0.80893
H         61.07697        39.79879        -1.03909
H         61.02221        42.18308        -0.58833
H         61.01614        44.05479        -0.54494
H         60.98801        46.50073        -0.45813
H         59.75250        48.63286        -0.45618
