         637
 CSIRO Nanostructure Databank - Neutral Graphene Oxide Data Set
C         23.16016        27.29234        -1.02017
C         23.14809        28.68912        -1.00971
C         23.25403        31.58690        -1.57117
C         23.36335        32.88621        -1.91737
C         23.47132        35.79602        -2.32033
C         23.51619        37.15948        -2.45473
C         23.48439        40.10204        -2.47296
C         23.44894        41.49015        -2.41872
C         23.23834        44.39062        -1.96691
C         23.16234        45.75770        -1.82001
C         25.52294        24.47223        -0.42315
C         24.37090        25.15320        -0.71514
C         25.53896        27.31206        -0.45779
C         24.34382        26.58787        -0.74459
C         25.52340        28.73904        -0.47488
C         24.31041        29.42507        -0.76034
C         25.59748        31.61710        -0.71175
C         24.24763        30.93510        -0.64473
C         25.68054        32.97645        -1.03220
C         24.53413        33.68121        -1.58683
C         25.92811        35.76792        -1.84116
C         24.59877        35.04583        -1.85561
C         25.82639        37.26173        -1.63612
C         24.66701        37.93345        -2.06279
C         25.76528        40.10662        -1.60628
C         24.62220        39.37729        -2.04853
C         25.74513        41.54061        -1.59813
C         24.54923        42.24041        -1.96738
C         25.61583        44.41488        -1.42898
C         24.47208        43.69161        -1.80110
C         25.53972        45.82500        -1.23121
C         24.31040        46.51063        -1.45491
C         25.40416        48.63172        -0.95986
C         24.27159        47.92393        -1.29537
C         28.07702        23.02659        -0.16136
C         27.95150        24.45004         0.12095
C         26.74270        25.15598        -0.11524
C         27.89740        27.33162         0.20037
C         26.73353        26.60383        -0.10636
C         27.91951        28.74670         0.10410
C         26.73590        29.45943        -0.20309
C         27.96199        31.59619        -0.03585
C         26.76550        30.89814        -0.29825
C         28.00518        33.02152        -0.19613
C         26.89557        33.70523        -0.76630
C         28.08129        35.83816        -0.53942
C         26.97311        35.10664        -0.98457
C         28.11083        37.29517        -0.65092
C         26.96053        37.98234        -1.17687
C         28.07418        40.14374        -0.72900
C         26.93321        39.41227        -1.17080
C         28.06271        41.57530        -0.75605
C         26.90704        42.25369        -1.20684
C         28.00834        44.41460        -0.61052
C         26.96583        43.73730        -1.45346
C         27.84006        45.82271        -0.29462
C         26.67500        46.56982        -0.78918
C         27.87959        48.72279        -0.46138
C         26.64215        47.97143        -0.69231
C         27.91169        50.13727        -0.62181
C         30.28818        22.99762         0.96261
C         29.19601        22.33940         0.15372
C         30.35041        24.47466         0.67043
C         29.13885        25.15246         0.47671
C         30.39898        27.31797         0.49942
C         29.08924        26.62477         0.78250
C         30.38918        28.76232         0.41192
C         29.16934        29.45837         0.29146
C         30.37184        31.58507         0.54020
C         29.17527        30.88643         0.28909
C         30.31763        33.05431         0.83330
C         29.17287        33.74431         0.14180
C         30.39272        35.85836         0.39290
C         29.20144        35.14336         0.02308
C         30.27862        37.32596         0.64156
C         29.20087        38.01965        -0.16488
C         30.35127        40.19672         0.20441
C         29.22010        39.45217        -0.23790
C         30.37932        41.61006         0.11816
C         29.22639        42.30329        -0.33133
C         30.36788        44.47872         0.12691
C         29.17235        43.74294        -0.24863
C         30.37196        45.88506         0.10436
C         29.11202        46.62413         0.06668
C         30.35570        48.74909        -0.28802
C         29.10279        48.06225        -0.22238
C         30.35508        50.15998        -0.57168
C         29.10272        50.82794        -0.65948
C         32.87432        20.23165         1.14138
C         31.65652        20.91848         1.06488
C         32.83815        23.03077         0.81043
C         31.62312        22.29985         0.89494
C         32.82509        24.47083         0.69988
C         31.59356        25.17195         0.65962
C         32.85958        27.32510         0.12615
C         31.58088        26.61322         0.49494
C         32.85992        28.78629         0.49196
C         31.62445        29.47983         0.48929
C         32.84717        31.62098         0.71748
C         31.60997        30.90454         0.61075
C         32.84195        33.06574         0.72881
C         31.63471        33.76140         0.64713
C         32.85018        35.91960         0.74626
C         31.60990        35.19283         0.60299
C         32.80819        37.36691         0.79021
C         31.60240        38.03162         0.62899
C         32.80033        40.25321         0.99871
C         31.50986        39.48620         0.77388
C         32.80643        41.69020         0.70000
C         31.60014        42.35389         0.41224
C         32.81124        44.51319         0.55257
C         31.59625        43.77882         0.33406
C         32.79165        45.93769         0.45365
C         31.59105        46.61843         0.18628
C         32.83448        48.71426        -0.21876
C         31.57793        48.04743        -0.05307
C         32.82441        50.06330        -0.80800
C         31.58474        50.84102        -0.82946
C         32.86975        52.91035        -1.21065
C         31.66700        52.21050        -1.15995
C         35.38677        18.74035         0.81367
C         35.39151        20.17988         1.25563
C         34.08466        20.91272         1.03017
C         35.32193        23.05160         0.79376
C         34.07799        22.32402         0.86697
C         35.31074        24.47255         0.74322
C         34.07344        25.19450         0.67154
C         35.31310        27.33242         0.65786
C         34.10218        26.60050         0.55293
C         35.32235        28.77132         0.66223
C         34.07311        29.48627         0.62883
C         35.31924        31.64020         0.75503
C         34.07358        30.92033         0.72675
C         35.30194        33.07188         0.74007
C         34.09678        33.77973         0.75150
C         35.30240        35.96034         0.98381
C         34.07523        35.23251         0.80916
C         35.28440        37.37300         1.09253
C         34.05334        38.10058         0.96200
C         35.28525        40.24381         1.12745
C         34.06377        39.50151         1.00822
C         35.24519        41.65278         1.12939
C         34.03577        42.39925         0.86351
C         35.24876        44.58896         1.25841
C         34.02495        43.81301         0.81412
C         35.29329        46.00468         0.76376
C         34.00273        46.76526         0.81496
C         35.30226        48.77793         0.02159
C         34.04356        48.08423         0.08582
C         35.32258        50.16074        -0.24796
C         34.16645        50.84878        -0.79949
C         35.30987        53.07479        -0.75001
C         34.11840        52.32241        -0.89792
C         35.39378        54.45860        -1.05451
C         37.80924        18.78275         0.43802
C         36.53567        18.09286         0.52437
C         37.79031        20.21957         0.45503
C         36.59595        20.92232         0.72676
C         37.77925        23.07368         0.52093
C         36.55921        22.34188         0.68874
C         37.77573        24.49079         0.63264
C         36.53966        25.19983         0.72473
C         37.78006        27.34513         0.83555
C         36.54573        26.62204         0.75384
C         37.77958        28.76793         0.87576
C         36.54068        29.49051         0.78115
C         37.80280        31.64105         0.95110
C         36.54801        30.92459         0.80308
C         37.82047        33.05255         0.95545
C         36.59475        33.81657         0.51442
C         37.74708        35.90627         1.27608
C         36.56568        35.24969         1.00092
C         37.72114        37.33280         1.77058
C         36.50128        38.10416         1.31189
C         37.78416        40.19611         1.51064
C         36.51874        39.49833         1.30863
C         37.76561        41.67692         1.61293
C         36.47944        42.41233         1.40483
C         37.75274        44.52146         0.96029
C         36.52910        43.83933         1.05469
C         37.74247        45.94244         0.78105
C         36.51465        46.67756         0.65224
C         37.75882        48.83140         0.29145
C         36.52847        48.10508         0.37367
C         37.79251        50.20137         0.07248
C         36.52444        50.94000         0.04545
C         37.84107        53.12916        -0.33033
C         36.52807        52.43932        -0.21278
C         37.83294        54.53673        -0.65801
C         36.58275        55.15374        -0.97729
C         40.27043        15.97674         0.14042
C         39.09115        16.64515         0.32864
C         40.23952        18.80142        -0.01242
C         39.02216        18.07759         0.26021
C         40.18918        20.23702        -0.08654
C         39.00437        20.94115         0.16414
C         40.19708        23.12735         0.15432
C         38.99971        22.38577         0.25167
C         40.22756        24.50847         0.47268
C         39.00391        25.21057         0.66290
C         40.24993        27.31878         1.01071
C         39.01272        26.62551         0.84358
C         40.21460        28.73039         1.18264
C         39.01317        29.46895         1.04908
C         40.25219        31.62434         1.28578
C         39.02734        30.91324         1.11731
C         40.25862        33.05708         1.33783
C         39.02842        33.77146         1.17998
C         40.22481        35.91398         1.47317
C         39.01466        35.20403         1.28692
C         40.22768        37.38464         1.54772
C         39.02500        38.07201         1.57438
C         40.23540        40.27662         2.00841
C         38.98060        39.51735         1.62914
C         40.21673        41.70854         1.51575
C         39.03398        42.40889         1.36813
C         40.25479        44.51825         0.87293
C         39.01555        43.81439         1.07265
C         40.26068        45.89703         0.63297
C         39.01973        46.65981         0.81036
C         40.32114        48.82309         0.23449
C         39.04116        48.14938         0.59416
C         40.32235        50.23073         0.01093
C         39.04177        50.91003        -0.39050
C         40.28582        53.09358         0.00899
C         39.01426        52.40686        -0.16484
C         40.29857        54.64364        -0.36201
C         39.05593        55.23325        -0.84898
C         40.35409        57.09598        -1.76197
C         39.14579        56.47641        -1.54192
C         42.70549        16.00328        -0.34103
C         41.47961        16.68324        -0.16866
C         42.65489        18.82573        -0.81299
C         41.44096        18.10213        -0.25528
C         42.74007        20.24531        -0.24783
C         41.41795        20.97003        -0.43847
C         42.72217        23.16545        -0.07891
C         41.43417        22.47212        -0.28872
C         42.70170        24.47688         0.37739
C         41.47713        25.19893         0.59302
C         42.74964        27.26757         1.02924
C         41.49110        26.58112         0.93030
C         42.76904        28.67678         1.43860
C         41.44214        29.45236         1.54070
C         42.72326        31.58398         1.55922
C         41.48626        30.91528         1.44934
C         42.74226        33.04537         1.60657
C         41.47856        33.77505         1.53099
C         42.69011        35.96044         1.73897
C         41.44188        35.19347         1.58251
C         42.70993        37.42065         1.48219
C         41.49673        38.11918         1.53740
C         42.74249        40.23403         1.65408
C         41.52256        39.54849         1.64808
C         42.77196        41.71668         1.79394
C         41.47254        42.46330         1.60118
C         42.74306        44.45789         0.89334
C         41.51824        43.83324         1.07148
C         42.80042        45.85202         0.40476
C         41.48979        46.61446         0.29051
C         42.81324        48.75242        -0.11813
C         41.50083        48.08921         0.22109
C         42.79426        50.25003         0.06949
C         41.56190        50.94449        -0.02725
C         42.78084        53.09126        -0.18070
C         41.56365        52.37721        -0.07518
C         42.79246        54.50029        -0.53054
C         41.58398        55.20461        -0.77137
C         42.83728        57.09663        -1.67438
C         41.59238        56.47238        -1.40357
C         43.91741        16.70184        -0.49841
C         45.20523        18.84310        -0.63423
C         43.96397        18.08716        -0.61984
C         45.21620        20.25793        -0.61841
C         43.93037        21.02711        -0.82942
C         45.17880        23.10988        -0.22096
C         43.96720        22.45077        -0.29819
C         45.13931        24.62136        -0.15763
C         44.01675        25.12242         0.74100
C         45.19769        27.35413         0.74899
C         43.96860        26.63239         0.77951
C         45.20934        28.75953         0.95027
C         43.99189        29.45647         1.25593
C         45.24646        31.53598         1.57599
C         43.95117        30.84169         1.46925
C         45.24584        33.04001         1.70153
C         43.94582        33.73526         1.63203
C         45.20483        35.90792         1.14499
C         43.98366        35.21018         1.71269
C         45.20568        37.40635         1.37346
C         43.96727        38.11017         1.43180
C         45.24240        40.22912         1.51342
C         43.98542        39.53902         1.49066
C         45.28847        41.71517         1.81452
C         44.01649        42.44023         1.47273
C         45.25319        44.45157         0.59612
C         43.99723        43.76120         1.10637
C         45.24867        45.95465         0.79412
C         44.05673        46.61567         0.61808
C         45.21098        48.88793         0.86452
C         43.95605        48.09867         0.65405
C         45.25723        50.29248         0.39978
C         44.01978        50.96536         0.14639
C         45.26033        53.08336        -0.19225
C         44.01795        52.38509        -0.07181
C         45.26878        54.47223        -0.52048
C         44.02832        55.16020        -0.78048
C         44.01650        56.47226        -1.33011
C         47.65324        18.85845        -0.62930
C         46.46201        18.16855        -0.61519
C         47.68352        20.27827        -0.59142
C         46.43805        20.97366        -0.54597
C         47.65667        23.08672        -0.22132
C         46.43509        22.40839        -0.37388
C         47.65751        24.48869         0.23741
C         46.43410        25.27349         0.24818
C         47.68430        27.38377         0.43383
C         46.44780        26.64067         0.52290
C         47.65325        28.80722         0.50976
C         46.44162        29.48675         0.83329
C         47.63188        31.63943         0.83044
C         46.46427        30.88594         1.06068
C         47.62896        33.08560         0.97865
C         46.48423        33.76169         1.35445
C         47.71132        35.97119         1.25728
C         46.47115        35.23511         1.68896
C         47.68544        37.35381         1.27032
C         46.43256        38.09293         1.40565
C         47.73951        40.25758         1.82581
C         46.44422        39.52439         1.49995
C         47.74967        41.72524         1.43823
C         46.53412        42.41550         1.31877
C         47.74842        44.51953         0.97200
C         46.53578        43.79169         1.02940
C         47.73027        45.97735         0.90023
C         46.50883        46.65873         0.93325
C         47.78650        48.88385         0.87071
C         46.48936        48.13229         1.08583
C         47.74120        50.29663         0.43982
C         46.49615        50.97689         0.28737
C         47.72691        53.07792        -0.17540
C         46.49644        52.38154        -0.03915
C         47.70073        54.47454        -0.43466
C         46.51178        55.14600        -0.61100
C         50.16543        20.37483        -0.91220
C         48.91940        21.01811        -0.63648
C         50.14246        23.17256        -0.53365
C         48.90928        22.42334        -0.43120
C         50.16063        24.57691        -0.35901
C         48.98592        25.26831         0.18516
C         50.05085        27.46036        -0.26338
C         48.90662        26.73129         0.11645
C         50.01514        28.89417        -0.21234
C         48.83547        29.56286         0.25521
C         49.99679        31.72856         0.07095
C         48.81929        30.97805         0.38805
C         50.05308        33.13798         0.26230
C         48.86374        33.82536         0.72728
C         50.18811        35.87572         0.98092
C         48.88413        35.20284         0.92510
C         50.20340        37.36274         1.18152
C         48.92419        38.11701         0.88055
C         50.18046        40.21355         1.31218
C         48.99277        39.55401         1.34231
C         50.22912        41.68310         1.49669
C         48.96415        42.42849         1.32936
C         50.25000        44.53730         0.95069
C         48.98270        43.82700         1.10641
C         50.22631        45.97793         0.75381
C         48.99666        46.69132         0.79904
C         50.21940        48.80636         0.38466
C         49.01718        48.10534         0.64796
C         50.21256        50.23689         0.21314
C         48.96941        50.96177         0.19279
C         50.21688        53.02655        -0.23829
C         48.97383        52.36572        -0.07392
C         51.32410        21.08956        -1.07999
C         52.53229        23.26822        -1.18631
C         51.35172        22.51377        -0.94001
C         52.52789        24.68870        -1.02785
C         51.31293        25.34099        -0.65618
C         52.40366        27.49756        -1.04392
C         51.27375        26.77315        -0.62678
C         52.21437        28.93298        -1.40565
C         51.12523        29.64531        -0.64033
C         52.22677        31.81718        -0.98822
C         51.11609        31.05437        -0.50007
C         52.36141        33.19405        -0.68096
C         51.26755        33.84316        -0.02093
C         52.52351        35.97368         0.23625
C         51.37060        35.22666         0.39690
C         52.59561        37.38103         0.57264
C         51.45886        38.07490         0.93921
C         52.70020        40.24451         0.81899
C         51.52125        39.50185         1.39010
C         52.71977        41.64321         0.77921
C         51.51843        42.40707         1.21636
C         52.78883        44.53324         0.83121
C         51.44958        43.84918         0.92554
C         52.69305        45.98040         0.42587
C         51.45390        46.67697         0.51331
C         52.68147        48.78395         0.07542
C         51.44983        48.08872         0.30240
C         52.68416        50.20772        -0.01424
C         51.43630        50.92854         0.01959
C         51.40628        52.33680        -0.17988
C         54.87012        23.35958        -1.90491
C         53.72197        22.66309        -1.76012
C         55.01832        24.72868        -1.28645
C         53.70382        25.46262        -1.26898
C         54.82248        27.65826        -1.74843
C         53.64253        26.86657        -1.35715
C         54.76471        29.07774        -1.86859
C         53.48702        29.72198        -1.57894
C         55.06636        32.14521        -1.76427
C         53.21842        31.07340        -1.73137
C         54.95496        33.26223        -0.99319
C         53.64004        33.96596        -0.90538
C         55.01421        35.97958        -0.00579
C         53.72104        35.36004        -0.35568
C         55.05637        37.35698         0.22035
C         53.84473        38.08859         0.41336
C         55.10246        40.19623         0.26104
C         53.87521        39.50775         0.49807
C         55.08866        41.61164         0.14159
C         53.87798        42.31814         0.32872
C         55.09543        44.48261        -0.18704
C         53.76485        43.76816        -0.07129
C         55.09111        45.86460        -0.19149
C         53.87918        46.63433         0.06274
C         55.14486        48.76133        -0.25151
C         53.90119        48.05802        -0.06721
C         55.11512        50.18681        -0.24153
C         53.92939        50.87857        -0.14656
C         57.37717        24.90153        -2.05591
C         56.16256        25.54343        -1.83547
C         57.24046        27.69639        -2.31721
C         56.05886        26.96148        -1.97440
C         57.20685        29.11664        -2.34315
C         56.01104        29.81265        -2.09331
C         57.40689        31.78464        -1.42400
C         56.18544        31.24350        -1.81025
C         57.43009        32.99672        -0.50086
C         56.27663        33.98006        -0.77890
C         57.52993        35.88650         0.18639
C         56.22527        35.12733         0.23902
C         57.55120        37.28559         0.13609
C         56.32189        38.04737         0.20142
C         57.56928        40.16456         0.01083
C         56.33149        39.45735         0.15082
C         57.55811        41.59186        -0.11250
C         56.32713        42.31506        -0.11664
C         57.56183        44.39422        -0.52465
C         56.32240        43.72351        -0.32393
C         57.55784        45.81609        -0.92267
C         56.28417        46.59429        -0.66106
C         57.64581        48.67325        -0.44395
C         56.35415        48.05093        -0.45864
C         58.52679        25.61852        -2.41739
C         59.68919        27.75618        -2.80026
C         58.47665        27.00484        -2.52878
C         59.70048        29.10100        -2.83058
C         58.45137        29.92611        -2.69895
C         59.81552        31.79348        -1.56643
C         58.62494        31.13915        -1.78963
C         59.86470        33.09339        -0.93800
C         58.75210        33.73465        -0.48425
C         60.02324        35.87695         0.04594
C         58.79295        35.05388         0.29942
C         60.00918        37.23063        -0.03540
C         58.79554        38.00832         0.03704
C         60.01738        40.18448        -0.09911
C         58.79855        39.43246        -0.01730
C         60.01547        41.55240        -0.16515
C         58.79714        42.30366        -0.19059
C         60.01333        44.50540        -0.26000
C         58.78840        43.71892        -0.34224
C         60.05061        45.82593        -0.52018
C         58.88066        46.56248        -1.11541
C         58.81009        47.99668        -0.64833
O         41.30092        21.81615        -1.62356
O         51.08802        42.10613         2.62240
O         53.55840        35.11175        -1.84125
O         42.19323        46.01787        -0.93539
O         31.89468        39.93624         2.13065
O         45.41851        32.18066         2.89131
O         47.23809        48.64417         2.23141
O         36.33854        51.91812         1.16100
O         33.64122        50.19090        -2.00947
O         43.46511        35.69033         2.98189
O         53.99977        31.81699        -2.60087
O         50.30001        36.48755         2.34115
O         37.02326        42.16431         2.79289
O         48.49230        24.69675         1.43258
O         56.65225        46.12194        -2.03585
O         28.16702        46.18410         1.08997
O         40.26378        54.15144         1.00372
O         44.22558        48.68085         1.95904
O         39.08224        47.63200         1.96482
O         42.10847        28.90987         2.72840
O         43.80713        21.15808        -2.26629
H         42.87120        21.41706        -2.45760
O         35.09314        44.69816         2.74656
H         35.55445        43.92758         3.15096
O         23.74980        31.18512         0.72057
H         23.73888        32.15682         0.85369
O         43.09062        48.51860        -1.54168
H         42.83517        47.57852        -1.72185
O         42.07837        42.28346         2.96029
O         26.43581        35.61534        -3.22682
H         25.77030        36.02560        -3.81985
O         47.79643        40.23094         3.29599
H         48.67286        40.57696         3.57204
O         44.83450        25.07816        -1.51133
H         45.32742        24.51728        -2.14600
O         58.20228        30.50423        -4.02577
H         58.04733        29.76047        -4.64514
O         45.21853        44.25101        -0.86255
H         44.40605        44.68595        -1.20250
O         46.38740        35.32787         3.13137
H         47.13430        34.82829         3.52149
O         37.56145        37.22841         3.23360
H         37.68993        38.12690         3.60835
O         51.66809        28.85999        -2.79736
H         52.36372        28.45123        -3.35651
O         40.21295        40.33826         3.47006
H         40.90744        40.99343         3.73210
O         42.97243        20.15004         1.17599
H         42.35771        19.48151         1.54660
O         35.55913        20.14942         2.72262
H         36.40312        19.68556         2.90840
O         55.36209        24.49253         0.12898
H         54.61463        24.00045         0.53100
O         48.91058        38.18808        -0.59180
H         48.15305        38.75023        -0.85988
O         56.56377        34.60729        -2.05715
H         55.73046        35.02694        -2.37252
O         29.86916        22.88731         2.37250
H         28.99187        23.32111         2.44644
O         57.27596        32.39826         0.81262
H         57.56641        33.06665         1.47861
O         45.14192        35.69002        -0.29071
H         45.93788        36.09630        -0.69476
O         29.82198        37.43279         2.05348
H         30.08623        38.31976         2.38493
O         45.38405        41.79904         3.27394
H         46.14970        41.23669         3.55180
O         30.02793        33.15716         2.28200
H         29.96645        34.11359         2.49655
O         58.86840        34.60981         1.71823
H         58.93430        35.41725         2.27185
O         53.17346        43.77141        -1.40572
H         53.85452        43.46677        -2.04156
O         59.14206        46.63243        -2.54989
H         58.25602        46.69961        -2.97812
O         42.42079        18.93466        -2.24589
H         42.42214        18.02762        -2.61631
O         27.43993        43.88421        -2.85665
H         26.79050        43.42000        -3.42758
O         56.03444        34.56817         1.58042
H         55.93208        35.31851         2.20299
O         44.33700        24.69737         2.09548
H         43.67875        25.09168         2.70518
O         32.90191        27.29706        -1.35703
H         32.11168        27.78360        -1.67596
O         53.37153        44.49295         2.16945
H         52.69736        44.80987         2.80651
O         38.98351        50.78500        -1.87958
H         39.31934        49.89412        -2.11836
O         36.71566        33.91127        -0.96143
H         37.57836        34.33682        -1.15405
O         33.82620        47.11443         2.24128
H         34.11826        46.32969         2.76715
O         28.90214        26.70364         2.24914
H         29.68591        26.28208         2.66312
O         51.77292        39.44621         2.84146
H         51.76075        40.38540         3.15398
H         22.23269        26.73735        -1.22158
H         22.19493        29.20523        -1.18743
H         22.35772        31.02831        -1.87617
H         22.57022        33.34221        -2.52714
H         22.52261        35.28120        -2.52694
H         22.61141        37.67724        -2.79880
H         22.59431        39.57442        -2.83928
H         22.52917        41.99755        -2.73868
H         22.32825        43.83677        -2.23285
H         22.20685        46.27807        -1.97899
H         25.50118        23.37408        -0.40380
H         23.44293        24.60331        -0.92957
H         25.33367        49.72349        -0.86623
H         23.32149        48.45263        -1.45971
H         27.26044        22.51481        -0.69048
H         26.97671        50.69853        -0.74829
H         29.27186        21.26912        -0.08840
H         29.07614        51.91539        -0.80933
H         32.85450        19.14906         1.32302
H         30.71860        20.35897         1.18430
H         32.81981        53.99112        -1.40113
H         30.74208        52.78372        -1.31213
H         34.44819        18.16960         0.84438
H         34.49229        54.99979        -1.37240
H         36.49788        17.01977         0.28905
H         36.56668        56.22730        -1.20860
H         40.30333        14.88014         0.21593
H         38.18447        16.06941         0.55821
H         40.38512        58.07186        -2.26695
H         38.22888        56.96587        -1.89738
H         42.72430        14.90763        -0.25638
H         42.85137        58.08722        -2.15050
H         44.84648        16.11489        -0.47337
H         44.96327        56.98663        -1.54001
H         48.59145        18.28790        -0.64300
H         46.49416        17.07093        -0.62274
H         48.63667        55.04222        -0.50916
H         46.54333        56.22373        -0.81590
H         50.19749        19.28473        -1.04083
H         50.25026        54.10772        -0.42222
H         52.24788        20.54914        -1.32614
H         52.34021        52.89468        -0.32211
H         55.73888        22.87925        -2.37752
H         53.66482        21.63430        -2.14322
H         56.04912        50.75237        -0.35614
H         53.96496        51.97516        -0.17542
H         57.45791        23.81615        -1.90789
H         57.70603        49.74465        -0.20237
H         59.47957        25.09138        -2.56795
H         60.61967        27.18741        -2.95051
H         60.63695        29.63371        -3.05198
H         60.76656        31.36130        -1.90865
H         60.85567        33.56477        -0.85990
H         60.99163        35.35688         0.01315
H         60.96748        37.75154        -0.17196
H         60.98223        39.66048        -0.10669
H         60.97696        42.07859        -0.23355
H         60.92585        44.00848         0.09919
H         60.99320        46.38245        -0.40842
H         59.76150        48.54832        -0.61100
