         667
 CSIRO Nanostructure Databank - Neutral Graphene Oxide Data Set
C          6.03154        31.73008        -0.04801
C          5.97205        33.07047         0.09569
C          8.53843        27.44253         0.68362
C          8.45587        28.85820         0.57586
C          7.32794        29.54145         0.14504
C          8.39017        31.76332         0.74571
C          7.36784        31.02533        -0.14572
C          8.42948        33.23039         0.41688
C          7.17944        33.89361         0.19396
C          8.35843        36.03691         0.08739
C          7.14865        35.27591         0.07130
C          8.35642        37.44298        -0.05200
C         11.10558        23.21493         1.00334
C         10.97769        24.61067         1.23871
C          9.80585        25.31537         0.98826
C         10.94276        27.47439         1.21657
C          9.74651        26.75523         1.01385
C         10.94213        28.93869         1.23153
C          9.65584        29.64519         0.96162
C         10.92309        31.74782         0.64057
C          9.73122        31.08761         0.66662
C         10.95283        33.25354         0.70007
C          9.62257        33.93039         0.41572
C         10.83110        36.06951         0.09102
C          9.60786        35.34439         0.20941
C         10.81412        37.48098        -0.05229
C          9.55899        38.18308        -0.09830
C         10.74862        40.36214        -0.27599
C          9.56874        39.59321        -0.27275
C         10.62211        41.78120        -0.55851
C         13.04987        18.73372         0.85081
C         12.97785        20.05219         1.37540
C         12.20270        21.09298         0.87953
C         13.48813        23.18497         1.72189
C         12.26437        22.47971         1.27489
C         13.46838        24.57295         1.76009
C         12.18579        25.30458         1.71912
C         13.45769        27.56120         1.47259
C         12.18084        26.82435         1.64005
C         13.43410        28.97274         1.20706
C         12.20827        29.67451         1.05487
C         13.45230        31.72630         0.52598
C         12.20533        31.04219         0.74650
C         13.39767        33.03514        -0.25431
C         12.03527        33.85984        -0.20464
C         13.24899        36.08268        -0.29178
C         12.07432        35.35278        -0.00422
C         13.24822        37.48203        -0.39564
C         12.02586        38.22073        -0.20427
C         13.28943        40.31237        -0.27049
C         12.01714        39.64724        -0.19208
C         13.42663        41.68295        -0.00611
C         11.57621        42.73620        -0.19167
C         13.17239        44.64933        -0.46778
C         11.86899        44.05784        -0.60190
C         13.26580        46.06730        -0.49301
C         15.77118        14.59726         0.65922
C         15.72248        15.99121         0.81149
C         14.43327        16.61497         0.64215
C         16.01994        18.95976         1.64514
C         14.09151        17.84580         1.19366
C         16.07663        20.38535         1.85326
C         14.86619        21.11997         2.17147
C         16.03426        23.23752         2.01266
C         14.75983        22.48689         1.96181
C         16.02480        24.73307         1.92006
C         14.69321        25.41184         1.88880
C         15.89447        27.58143         1.46505
C         14.66105        26.85493         1.50234
C         15.79492        28.96352         1.60989
C         14.64802        29.72545         1.24256
C         16.00277        31.93391         0.76998
C         14.67841        31.10328         0.80478
C         15.87054        33.25102         0.02479
C         14.59238        33.99585         0.23285
C         15.72784        35.99877        -1.02265
C         14.45145        35.27177        -0.56147
C         15.67597        37.45854        -0.89420
C         14.49961        38.16557        -0.63157
C         15.70698        40.33469        -0.63147
C         14.51312        39.60479        -0.53963
C         15.74173        41.76385        -0.70791
C         14.51291        42.48905        -0.45466
C         15.64598        44.64031        -0.87174
C         14.41646        43.89547        -0.51588
C         15.72560        46.08080        -0.59840
C         14.48818        46.78297        -0.44076
C         15.72419        48.92647        -0.32581
C         14.52806        48.19375        -0.29245
C         15.63191        50.34721        -0.00610
C         18.29418        10.30905         0.46471
C         18.26173        11.71758         0.62880
C         17.02243        12.45569         0.64072
C         18.21283        14.60743         0.96777
C         16.96913        13.83898         0.77523
C         18.19216        16.07284         0.75589
C         16.97927        16.75527         0.89907
C         18.23272        18.89926         0.64684
C         17.04219        18.21119         0.99833
C         18.20481        20.41194         0.52172
C         17.20309        21.06978         1.41851
C         18.53309        23.22420         1.16658
C         17.33560        22.49516         1.67195
C         18.53781        24.70362         1.22719
C         17.21087        25.41293         1.27635
C         18.44948        27.60518         0.64822
C         17.18374        26.90124         1.09377
C         18.42293        29.02223         0.33469
C         17.61448        29.93810         0.94476
C         18.33791        31.81948        -0.29395
C         17.31447        31.24300         0.38997
C         18.18529        33.08371        -1.06767
C         16.95696        33.87111        -0.59367
C         18.25363        36.00011        -0.54179
C         16.96762        35.26664        -0.81709
C         18.21115        37.40859        -1.15514
C         16.96359        38.11736        -0.68370
C         18.23110        40.33588        -0.79679
C         16.97772        39.62230        -0.56655
C         18.22288        41.72943        -0.82277
C         16.97132        42.43249        -0.82353
C         18.23853        44.62668        -0.77100
C         16.98031        43.88584        -0.99803
C         18.21002        46.00810        -0.64469
C         16.95973        46.75447        -0.57494
C         18.24332        48.82430        -0.26670
C         16.97672        48.19710        -0.45067
C         18.45134        50.17914        -0.50066
C         16.57803        51.28820        -0.36451
C         18.15708        53.17897         0.02661
C         16.84030        52.63573         0.02817
C         18.29812        54.56947        -0.02199
C         20.90136         6.20554        -0.48256
C         20.84819         7.49154         0.03915
C         19.50786         8.10033         0.40990
C         20.72032        10.31293         0.66790
C         19.50662         9.61457         0.48487
C         20.73488        11.72616         0.73525
C         19.49591        12.40547         0.72235
C         20.69883        14.56785         0.30041
C         19.50853        13.86799         0.89773
C         20.67591        16.05814         0.49342
C         19.44610        16.75522         0.56850
C         20.65967        18.86458         0.12651
C         19.44492        18.18956         0.42107
C         20.63990        20.36698        -0.07574
C         19.59535        21.01650         0.82648
C         20.81630        23.21911         0.19695
C         19.62747        22.53223         0.71874
C         20.79410        24.60863         0.04835
C         19.70198        25.43760         0.58958
C         20.58908        27.49276        -0.63258
C         19.54021        26.87120         0.19574
C         20.52029        28.79503        -1.04738
C         19.28006        29.59994        -0.77695
C         20.75798        31.69937        -1.20099
C         19.64222        31.04301        -0.39061
C         20.69199        33.14516        -1.28568
C         19.50642        33.84667        -1.07107
C         20.71110        35.99231        -0.99398
C         19.51189        35.26986        -0.96837
C         20.70768        37.41759        -0.49127
C         19.45641        38.18800        -0.82408
C         20.68688        40.30985        -0.62688
C         19.45168        39.57258        -0.76902
C         20.68825        41.70614        -0.57121
C         19.46754        42.46476        -0.72724
C         20.70626        44.55880        -0.33054
C         19.47042        43.86491        -0.66288
C         20.69965        45.92770        -0.15024
C         19.52367        46.76205        -0.58291
C         20.70504        48.78756         0.30322
C         19.39263        48.02304         0.29038
C         20.71218        50.22351         0.32006
C         19.53503        50.92711         0.01863
C         20.72046        53.09813         0.38390
C         19.38881        52.36791         0.45595
C         20.75009        54.50870         0.38816
C         19.54298        55.25830         0.09685
C         20.78754        57.40408         0.05325
C         19.60490        56.63547        -0.15955
C         20.81575        58.77136        -0.05554
C         23.44368         3.64188        -1.49927
C         22.21333         4.25204        -1.26663
C         23.36008         6.25638        -0.43017
C         22.14817         5.56725        -0.73249
C         23.31095         7.57089         0.10830
C         22.05528         8.17836         0.33381
C         23.25894        10.32521         1.03108
C         21.97595         9.55562         0.86053
C         23.23987        11.80981         0.97361
C         21.98682        12.48158         0.83777
C         23.18682        14.62955         0.66879
C         21.99344        13.88770         0.66616
C         23.16672        16.06428         0.45581
C         21.90106        16.75023         0.37007
C         23.13311        18.83357        -0.07422
C         21.88478        18.15820         0.11842
C         23.04787        20.21615        -0.66684
C         22.02606        20.99737         0.15612
C         23.14988        23.08474        -0.72401
C         21.99321        22.46836        -0.16282
C         22.91711        24.43232        -1.34473
C         21.98304        25.33734        -0.51948
C         22.69060        27.20805        -2.01938
C         21.50642        26.53128        -1.36658
C         22.64803        28.54214        -2.30066
C         21.50322        29.46706        -1.99260
C         23.08572        31.73259        -2.22956
C         21.85169        30.95283        -1.61704
C         23.16010        33.14138        -1.65059
C         21.88397        33.91715        -1.79285
C         23.17021        36.02219        -1.23264
C         21.94684        35.33856        -1.27405
C         23.19284        37.52829        -1.27602
C         21.92872        38.19681        -0.84755
C         23.16605        40.26115        -0.45188
C         21.92248        39.56523        -0.67781
C         23.14209        41.64866        -0.20220
C         21.93203        42.40000        -0.32629
C         23.15925        44.47356         0.16664
C         21.92933        43.79623        -0.15333
C         23.15556        45.90404         0.39934
C         21.83495        46.59276         0.59874
C         23.14837        48.78992         0.52389
C         21.89124        48.09202         0.43340
C         23.17288        50.21764         0.56741
C         21.94487        50.94173         0.51958
C         23.19690        53.09201         0.87163
C         21.92172        52.36173         0.52260
C         23.19907        54.52865         0.44317
C         22.01194        55.21444         0.43662
C         23.28604        57.39768         0.30429
C         21.98795        56.70777         0.65426
C         23.28666        58.79486         0.23409
C         21.99681        59.54717         0.46144
C         23.23436        61.57718        -0.33262
C         22.04213        60.95100        -0.05854
C         24.63830         4.30960        -1.22139
C         25.82718         6.32055        -0.42998
C         24.62673         5.62333        -0.68887
C         25.83513         7.64135         0.09225
C         24.55184         8.28895         0.37220
C         25.75464        10.35568         1.04470
C         24.52226         9.62024         0.73640
C         25.76778        11.85558         0.80940
C         24.43424        12.53176         1.01566
C         25.64019        14.69576         1.00572
C         24.44167        13.96392         0.90797
C         25.70664        16.09291         0.42865
C         24.36594        16.79652         0.42262
C         25.55593        19.07564         0.46400
C         24.34179        18.20155         0.18914
C         25.63792        20.29847        -0.42128
C         24.35742        20.94036        -0.83019
C         25.56726        22.96735        -1.69965
C         24.31525        22.39169        -1.04420
C         25.50252        24.50464        -1.96843
C         24.16570        25.17824        -1.77630
C         25.84372        27.57645        -2.41991
C         23.87816        26.40281        -2.31215
C         25.82615        28.97891        -2.29600
C         24.63249        29.76388        -2.54249
C         25.70435        31.82908        -1.92735
C         24.47775        31.07931        -2.15055
C         25.71519        33.20730        -1.72483
C         24.41550        33.95354        -1.92782
C         25.62819        36.02285        -1.02881
C         24.41989        35.35143        -1.34150
C         25.61097        37.39599        -0.58295
C         24.40254        38.13919        -0.61428
C         25.49734        40.12210         0.46549
C         24.35332        39.49581        -0.27717
C         25.56171        41.60905         0.26275
C         24.38275        42.32942         0.09994
C         25.51443        44.41107         0.96007
C         24.35275        43.74967         0.26916
C         25.65236        45.87060         0.50084
C         24.33399        46.61482         0.53708
C         25.62772        48.73496         0.64217
C         24.35847        48.04786         0.58069
C         25.66059        50.19243         0.58702
C         24.43716        50.92177         0.59462
C         25.70048        53.02964         0.58720
C         24.47441        52.34006         0.59847
C         25.74770        54.48862         0.45456
C         24.47938        55.18042        -0.00958
C         25.71425        57.37195         0.08165
C         24.49079        56.67418         0.18607
C         25.71818        58.76262        -0.02140
C         24.50346        59.49814        -0.00698
C         24.47059        60.90021        -0.24246
C         27.04329         8.32930         0.25450
C         28.27509        10.55529         0.69813
C         27.10026         9.66257         0.84105
C         28.23529        11.87875         1.02896
C         26.93866        12.50779         1.55474
C         28.18986        14.81298         1.30303
C         26.89889        14.04188         1.42078
C         28.15444        16.26246         0.97591
C         26.81950        16.95462         1.06825
C         28.03306        19.06458         0.35113
C         26.86474        18.34922         0.49989
C         28.03100        20.49526         0.00443
C         26.85098        21.14282        -0.36175
C         27.99329        23.22784        -0.91751
C         26.83528        22.49044        -0.92787
C         28.09508        24.51675        -1.67257
C         26.82593        25.27992        -2.02661
C         28.16448        27.47630        -1.83377
C         26.93394        26.78743        -2.00493
C         28.20578        28.89554        -1.87402
C         27.02551        29.64444        -1.98725
C         28.28389        31.85324        -2.06968
C         26.98627        31.10564        -2.36139
C         28.24101        33.32525        -1.77060
C         26.92255        33.97051        -1.52955
C         28.11267        35.96841        -0.65099
C         26.90005        35.31517        -1.10912
C         28.15528        37.47037        -0.47583
C         26.81698        38.09256        -0.19813
C         28.00216        40.07961         0.68727
C         26.79797        39.39922         0.23995
C         27.99489        41.45247         0.81743
C         26.89244        42.29855         0.22400
C         28.00464        44.38549         0.99703
C         26.84328        43.71087         0.77615
C         28.05189        45.83705         1.20588
C         26.73553        46.58451         1.30911
C         28.04456        48.74525         1.14927
C         26.79585        48.02655         0.88265
C         28.18437        50.11567         0.54465
C         26.88811        50.88724         0.63542
C         28.20023        52.97224         0.76585
C         26.92494        52.29562         0.63249
C         28.26403        54.47562         0.68916
C         26.92890        55.16394         0.47526
C         27.02724        56.62826         0.09213
C         29.41524        12.70687         0.84362
C         30.64371        14.86408         0.55576
C         29.42680        14.05974         0.97405
C         30.60960        16.25899         1.20381
C         29.31572        16.97558         0.86767
C         30.48749        19.13314         0.54701
C         29.30515        18.40105         0.58174
C         30.45118        20.56144         0.32871
C         29.26848        21.22804         0.03222
C         30.51704        23.38716        -0.47081
C         29.18892        22.74862        -0.09334
C         30.61052        24.62826        -1.06711
C         29.41345        25.23765        -1.72860
C         30.68067        27.45949        -1.60671
C         29.46123        26.72417        -2.11887
C         30.69155        28.84227        -1.58142
C         29.51943        29.61676        -2.12253
C         30.61792        31.70691        -1.17201
C         29.49247        31.07581        -1.71342
C         30.61783        33.11645        -0.85966
C         29.52931        34.04021        -1.35893
C         30.48023        35.88866         0.06460
C         29.31633        35.28491        -0.53227
C         30.41902        37.18985         0.59166
C         29.24784        37.97790         0.45213
C         30.38129        39.93623         1.50799
C         29.20264        39.29360         0.95270
C         30.32141        41.37417         1.88929
C         29.12140        42.16867         1.43900
C         30.34221        44.38535         1.82040
C         29.31276        43.60577         0.96748
C         30.55446        45.76774         1.14679
C         29.23862        46.50443         1.31013
C         30.59372        48.67848         1.42380
C         29.28708        47.96888         1.45677
C         30.55384        50.11876         1.35570
C         29.40945        50.83780         1.05051
C         29.36296        52.27179         1.01558
C         31.82543        17.08201         0.92462
C         32.98400        19.19657         0.67745
C         31.77129        18.44775         0.73113
C         32.99537        20.59129         0.56981
C         31.70724        21.32018         0.51784
C         33.04380        23.37708        -0.18056
C         31.73357        22.78215         0.10630
C         33.10098        24.66579        -0.75720
C         31.86866        25.32823        -1.14189
C         33.13142        27.43465        -1.33390
C         31.89599        26.72546        -1.38724
C         33.12134        28.82977        -1.16940
C         31.87934        29.55150        -1.21238
C         33.03759        31.61878        -0.56501
C         31.84232        30.94265        -0.96386
C         32.98171        32.99178        -0.26554
C         31.77260        33.74451        -0.37348
C         32.89017        35.76361         0.52635
C         31.74243        35.14293         0.07113
C         32.86055        37.05305         1.25781
C         31.51299        37.72902         1.48780
C         32.85924        39.93145         1.71887
C         31.59630        39.25162         1.53823
C         32.92006        41.33710         2.28707
C         31.60778        42.11812         2.20485
C         32.92702        44.33294         1.91422
C         31.63121        43.61798         2.10149
C         32.92152        45.77158         1.88570
C         31.76677        46.51073         1.67292
C         31.75596        47.94842         1.61145
C         34.19961        21.30438         0.51243
C         35.48772        23.33021        -0.02752
C         34.24743        22.67984         0.14037
C         35.55886        24.65122        -0.52596
C         34.35144        25.30384        -0.90980
C         35.68271        27.40979        -1.33325
C         34.39642        26.63759        -1.60175
C         35.63323        28.86804        -1.02964
C         34.33038        29.55911        -0.91681
C         35.54239        31.55916        -0.17658
C         34.30211        30.90105        -0.56418
C         35.45128        32.94033         0.30041
C         34.24301        33.71968        -0.07086
C         35.46267        35.83811         0.74172
C         34.21354        35.16874         0.29176
C         35.43212        37.21219         1.00319
C         34.13948        37.83180         1.36717
C         35.33608        40.02728         1.52191
C         34.07967        39.29515         1.55090
C         35.28954        41.46878         1.56672
C         34.11709        42.14733         1.80878
C         34.08403        43.58444         1.79693
C         36.82014        25.31377        -0.61393
C         38.11689        27.39164        -0.76076
C         36.92901        26.69010        -0.92232
C         38.16618        28.90223        -0.85910
C         36.82601        29.42613        -0.27894
C         37.98932        31.61468         0.21973
C         36.76888        30.92046        -0.11469
C         37.98552        32.97930         0.50671
C         36.71104        33.68508         0.66012
C         37.91705        35.85881         0.88706
C         36.69461        35.15749         0.71377
C         37.87282        37.26255         1.05616
C         36.64076        37.94424         1.15250
C         36.54828        39.36849         1.35709
C         39.32383        29.55969        -0.14080
C         40.44780        31.62535         0.59913
C         39.25631        30.88072         0.22404
C         40.43133        32.97313         0.78748
C         39.19745        33.73129         0.72282
C         39.15184        35.10831         0.90722
O         26.17599        24.78821        -3.24280
O         16.83301        25.94567        -0.02683
O         11.61526        34.09074        -1.52411
O         17.89871        32.73236        -2.38700
O         34.42943        34.72840        -1.12317
O         12.47610        42.27744         0.80723
O         31.57748        22.37670         1.53722
O         30.87818        45.67092        -0.22395
O         16.91748        29.62471         2.11852
O         28.45008        32.85444        -3.16041
O         14.82368        35.28268        -1.94229
O         15.48444        25.29575         3.14749
O         10.08641        29.42592         2.36517
O         25.17184        20.15573        -1.79572
O         12.00947        26.12195         2.93007
O         22.56247         9.74808         2.19802
O         35.83257        33.08955         1.70868
O         33.60071        37.04187         2.53065
O         19.57127        25.27091         2.08119
O         28.98029        24.39311        -2.85742
O         16.22238        44.30053        -2.18636
O         29.27532        41.78598         2.83931
O         31.51417        42.95189         3.41156
O         27.56187        14.60999         2.64174
O         14.97124        18.30463         2.22251
O         28.44449        48.53829         2.55151
O         23.58306        29.10147        -3.17049
O         17.54134        50.84595        -1.30843
O         19.01273        14.30224         2.19223
O         26.46396         9.79867         2.17024
O         35.90603        28.40153        -2.40506
O         13.75591        20.35341         2.51108
O         17.08743        38.73022         0.62933
O         24.81357        27.00780        -3.14556
O         16.95717        22.81047         3.06282
O         26.06134        12.03735        -0.61582
H         25.29618        11.70721        -1.13201
O         11.34575        33.59744         2.05754
H         10.68386        33.21544         2.67203
O         22.22228        24.08448        -2.57473
H         22.83994        23.56618        -3.13237
O         21.84438        56.83851         2.10869
H         21.75365        57.81066         2.29394
O          7.85413        31.16793        -1.51398
H          7.18429        30.78642        -2.11848
O         19.81292        47.25214        -1.93066
H         19.80231        46.48388        -2.53983
O         29.57889        26.78343        -3.57334
H         29.17336        25.95090        -3.92148
O         27.95003        57.32880         0.95556
H         27.45743        57.60826         1.75515
O         30.10650        34.62086        -2.57929
H         29.91230        33.98137        -3.30667
O         28.40926        49.86394        -0.88195
H         28.53851        50.72949        -1.32311
O         13.62099        32.68372        -1.59622
H         12.96187        33.21980        -2.12795
O         30.60491        16.00301         2.64232
H         30.53126        16.86498         3.10304
O         20.65174        26.00666        -2.41199
H         20.34056        26.75928        -2.95809
O         26.36712        46.64311         2.72057
H         27.07051        47.18052         3.16222
O         28.93444        23.24137         1.26922
H         29.72585        22.98234         1.80379
O         26.11962        15.94104        -0.97431
H         25.46847        15.35724        -1.41748
O         25.63484        22.34759        -3.00394
H         26.17215        22.94859        -3.57388
O         23.33930        37.84850        -2.71342
H         24.20877        37.49611        -3.00341
O         25.17656        39.94622         1.90186
H         25.01467        38.99020         2.05193
O         29.74949        43.43116        -0.39789
H         30.17350        44.31047        -0.67725
O         25.35998        19.58648         1.81698
H         25.55033        18.84127         2.43562
O         29.68481        29.62250        -3.57675
H         29.65839        28.67805        -3.87155
O         28.93034        54.97158         1.85223
H         28.93850        55.95471         1.76950
O         16.17955        32.33165         2.18130
H         16.39439        31.50119         2.67249
O         20.53166        14.37213        -1.15216
H         21.27334        14.83131        -1.60029
O         20.84751        29.63501        -3.29777
H         21.47878        30.16254        -3.84713
O         26.78751        12.19903         2.94440
H         27.31661        12.85788         3.44825
O          7.95846        31.66337         2.13000
H          8.27268        30.80667         2.49339
O         26.12089        45.87871        -0.86703
H         25.53415        45.30498        -1.40277
O         31.08289        37.34426         2.83016
H         31.89071        37.38001         3.39524
O         22.76158        25.84801         0.59225
H         22.14977        26.09166         1.31926
O         28.53367        37.96244        -1.81650
H         29.28369        37.41255        -2.13225
O         33.18055        41.08783         3.70099
H         32.82272        41.86524         4.19148
O         20.74649        37.32994         0.98523
H         19.84339        37.03665         1.27291
O         26.49590        17.10237         2.48635
H         26.75622        16.24765         2.92090
O         36.70476        28.87932         1.06874
H         37.33772        29.35608         1.64673
O         18.48459        29.59022        -1.97610
H         19.02770        29.95295        -2.71478
O         22.46047        20.83362         1.52205
H         21.67691        20.92069         2.11780
O         38.34215        29.30351        -2.23997
H         37.58173        28.93137        -2.75059
O         18.10283        37.27387        -2.58986
H         18.78861        36.64537        -2.90325
O         19.15750        52.22842         1.91377
H         19.11065        53.13339         2.29075
O         18.29801        36.16925         0.91489
H         18.21221        35.28624         1.33276
O         23.16093        53.16490         2.35835
H         22.41243        53.75055         2.60626
O         20.19795        30.96711         0.95781
H         20.52944        31.85631         1.20259
O         25.15079        44.34005         2.36159
H         25.69507        45.00350         2.85505
O         19.05428        47.63478         1.63740
H         19.85235        47.20684         2.03990
O         22.59136        20.02261        -2.04083
H         23.40088        19.83391        -2.57190
O         18.48044         7.64017        -0.47438
H         18.65661         8.00234        -1.36642
O         22.78183        31.80376        -3.66643
H         22.09168        32.51740        -3.76701
O         27.23577        42.45213        -1.19812
H         28.15358        42.83509        -1.21871
O         34.37533        26.34682        -3.03400
H         34.68425        27.16447        -3.48637
O         24.36207        34.19402        -3.40123
H         24.29050        33.30112        -3.81895
O         14.35166        34.30396         1.61006
H         14.79470        33.61780         2.16599
O         21.62897        34.13832        -3.25772
H         22.44812        34.58509        -3.59146
O         19.89111        20.67020         2.20502
H         19.30204        21.19095         2.79333
O         20.21562        20.68595        -1.42265
H         20.93095        20.41060        -2.04925
O         21.81452        59.63221         1.94901
H         22.55636        60.17331         2.29610
O         29.71347        44.65816         3.08329
H         29.89447        43.88075         3.66630
O         30.66208        14.98537        -0.87299
H         29.85080        15.45790        -1.15433
O         26.83337        31.04980        -3.81438
H         27.31048        31.83207        -4.17977
O         24.46247        54.97542        -1.47620
H         25.18693        55.51371        -1.85984
O         17.72312        20.74442        -0.80747
H         18.49561        20.68488        -1.42715
O         21.50419        46.38558         2.03685
H         21.69590        45.44672         2.25319
H          5.10734        31.14009        -0.15341
H          4.99824        33.58437         0.10665
H          7.64371        26.84489         0.45334
H          6.42950        28.97167        -0.14393
H          6.18966        35.79712        -0.06872
H          7.39568        37.97286        -0.14182
H         10.22986        22.67742         0.60952
H          8.90682        24.76178         0.67917
H          8.60255        40.11139        -0.37363
H          9.72457        42.10115        -1.10965
H         12.39519        18.47205         0.00809
H         11.41995        20.83480         0.14947
H         11.07614        44.68006        -1.04467
H         12.32987        46.64626        -0.48098
H         14.82676        14.05858         0.48785
H         13.67006        16.05553         0.08060
H         13.57994        48.73246        -0.14693
H         14.76906        50.66235         0.59969
H         17.35507         9.74820         0.35145
H         16.08454        11.89661         0.50180
H         15.99977        53.31755         0.23726
H         17.40401        55.17549        -0.23674
H         19.96472         5.66880        -0.69298
H         19.23809         7.70822         1.43049
H         18.68670        57.15768        -0.46975
H         19.94004        59.32027        -0.43471
H         23.47584         2.62326        -1.91077
H         21.27977         3.71800        -1.49430
H         23.23279        62.63514        -0.63434
H         21.09659        61.50815        -0.12829
H         25.60216         3.81860        -1.41809
H         26.78803         5.82719        -0.64081
H         26.67283        59.29506        -0.14251
H         25.40852        61.43980        -0.43220
H         27.97133         7.87507        -0.12569
H         29.21128        10.11816         0.31472
H         28.89737        54.74603        -0.22148
H         27.48435        56.66857        -0.94004
H         30.33797        12.19745         0.52172
H         31.57876        14.32966         0.85303
H         31.48425        50.66962         1.56898
H         30.28520        52.83488         1.22440
H         32.80654        16.59817         1.04653
H         33.93987        18.65748         0.75110
H         33.88477        46.29059         2.02071
H         32.71518        48.48404         1.70704
H         35.14708        20.75881         0.63190
H         36.41460        22.79914         0.23292
H         36.21461        42.02745         1.35608
H         35.03725        44.10802         1.62095
H         37.72206        24.76679        -0.30115
H         39.02823        26.83654        -0.48700
H         38.81174        37.82470         1.16781
H         37.47772        39.95750         1.35461
H         40.29957        29.04831        -0.14120
H         41.39863        31.07484         0.65808
H         41.36396        33.51081         1.01371
H         40.09021        35.65595         1.08264
