         640
 CSIRO Nanostructure Databank - Neutral Graphene Oxide Data Set
C         23.08762        27.35097         0.84358
C         23.07046        28.76546         0.76899
C         23.03926        31.70339         0.74141
C         23.04269        33.08027         0.67410
C         23.05691        35.99400         0.63920
C         23.09766        37.36341         0.78820
C         23.21059        40.22599         1.32222
C         23.20654        41.61558         1.35908
C         23.14072        44.52845         1.25053
C         23.11713        45.90608         1.23979
C         25.51329        24.54135         0.79959
C         24.32806        25.21521         0.91515
C         25.57547        27.39520         1.03423
C         24.27715        26.64732         0.87850
C         25.50932        28.82309         0.56243
C         24.24274        29.51055         0.60959
C         25.39243        31.66726         0.13027
C         24.21999        30.96261         0.48345
C         25.42652        33.08922         0.10415
C         24.22661        33.80467         0.38565
C         25.48415        35.94108         0.35814
C         24.24362        35.24628         0.44512
C         25.52050        37.34729         0.56277
C         24.33390        38.06135         0.79548
C         25.57476        40.23030         0.71777
C         24.36510        39.51046         0.97227
C         25.56152        41.66045         0.71765
C         24.35661        42.35906         1.02641
C         25.54080        44.51895         0.74024
C         24.34046        43.80672         1.00919
C         25.52256        45.95187         0.75478
C         24.30518        46.64346         1.00090
C         25.44729        48.77962         0.79253
C         24.29340        48.06896         1.00465
C         27.99318        23.06268         0.15059
C         27.96951        24.51036         0.21659
C         26.76379        25.23128         0.53468
C         27.95453        27.35770         0.19337
C         26.77004        26.63577         0.51386
C         27.92913        28.78178         0.04572
C         26.66603        29.47306         0.15776
C         27.88865        31.64156        -0.47840
C         26.58805        30.88938        -0.24136
C         27.89387        33.10956        -0.36573
C         26.65812        33.82033        -0.13054
C         27.91294        35.97231        -0.18350
C         26.68775        35.22188         0.03915
C         27.98025        37.33254         0.01019
C         26.84993        38.04440         0.71391
C         27.95697        40.23052         0.11826
C         26.78265        39.52873         0.44289
C         27.95773        41.66763         0.13435
C         26.76696        42.38127         0.43473
C         27.96135        44.54589         0.19931
C         26.76010        43.81743         0.45695
C         27.94739        46.00177         0.26092
C         26.72270        46.69589         0.53462
C         27.91394        48.85904         0.39594
C         26.69338        48.11887         0.56412
C         27.94268        50.28867         0.39942
C         30.42080        22.99983        -0.20587
C         29.14615        22.35384        -0.03301
C         30.37587        24.47949        -0.52947
C         29.16365        25.21631        -0.00057
C         30.39354        27.37404        -0.11952
C         29.17462        26.64127         0.00694
C         30.38870        28.76980        -0.20995
C         29.13896        29.49109        -0.20694
C         30.36475        31.64116        -0.37612
C         29.15560        30.91128        -0.33689
C         30.35130        33.07205        -0.51054
C         29.10853        33.77860        -0.50149
C         30.38958        35.96188        -0.67933
C         29.07049        35.25060        -0.83174
C         30.39304        37.37708        -0.64768
C         29.17830        38.09474        -0.32641
C         30.31552        40.27669        -0.69734
C         29.14553        39.49476        -0.26283
C         30.34526        41.72459        -0.45693
C         29.17534        42.40574        -0.11873
C         30.40706        44.56703        -0.25915
C         29.16293        43.84943        -0.06758
C         30.39307        46.07582        -0.38446
C         29.12341        46.74012         0.08664
C         30.38353        48.89435         0.16329
C         29.13336        48.15804         0.21173
C         30.37739        50.32194         0.18144
C         29.11610        50.98788         0.26715
C         32.89333        20.23482        -0.52546
C         31.70927        20.86931        -0.28331
C         32.93723        23.03690        -0.18318
C         31.61767        22.30783        -0.27504
C         32.86417        24.52218        -0.41838
C         31.68056        25.19097        -0.29381
C         32.91350        27.37320        -0.29344
C         31.67706        26.63285         0.13518
C         32.87111        28.81468        -0.34680
C         31.63182        29.51096        -0.29137
C         32.83722        31.66916        -0.37686
C         31.61550        30.93155        -0.34886
C         32.83339        33.09049        -0.48418
C         31.58236        33.79992        -0.60831
C         32.87836        35.90535        -1.10058
C         31.58355        35.21612        -0.74434
C         32.84649        37.40479        -0.90401
C         31.65731        38.08284        -0.78825
C         32.87882        40.33209        -0.79084
C         31.62379        39.56143        -0.94172
C         32.87070        41.69623        -0.64936
C         31.58214        42.46499        -0.88628
C         32.88941        44.65157        -0.65943
C         31.59331        43.90583        -0.44908
C         32.89529        46.04707        -0.06981
C         31.59705        46.70138         0.30781
C         32.84068        48.90345         0.21512
C         31.61439        48.20460         0.17060
C         32.85298        50.33665         0.20373
C         31.61661        51.04140         0.16131
C         32.84100        53.15660         0.08909
C         31.65599        52.47254         0.11947
C         35.39055        18.86935        -1.41045
C         35.36937        20.24706        -1.08560
C         34.10660        20.96575        -0.84332
C         35.35507        23.10091        -1.17855
C         34.09258        22.33617        -0.83530
C         35.32326        24.56659        -0.78772
C         34.12657        25.23654        -0.51031
C         35.33008        27.42153        -0.89566
C         34.09365        26.67934        -0.47562
C         35.34213        28.84940        -0.43526
C         34.09360        29.54238        -0.37979
C         35.30778        31.66981        -0.21168
C         34.07971        30.96355        -0.31345
C         35.29391        33.09569        -0.19216
C         34.06837        33.80060        -0.39275
C         35.30229        35.91513        -0.36669
C         34.10550        35.22656        -0.52692
C         35.38977        37.36124        -0.69380
C         34.14356        38.11550        -1.06152
C         35.37072        40.26429        -0.42029
C         34.18576        39.64325        -1.12804
C         35.33113        41.69408        -0.27869
C         34.11797        42.42342        -0.45086
C         35.30489        44.51153         0.02019
C         34.11751        43.83558        -0.28542
C         35.30131        45.93846         0.49444
C         34.05908        46.72205         0.15759
C         35.29119        48.87724         0.36649
C         34.07847        48.17434         0.29481
C         35.30862        50.30232         0.35654
C         34.10279        51.04373         0.25580
C         35.31536        53.21998         0.03668
C         34.10751        52.48902         0.14738
C         35.39428        54.60999        -0.27639
C         37.82411        18.82722        -1.24834
C         36.58452        18.18003        -1.48355
C         37.82067        20.22945        -0.97377
C         36.58205        20.92161        -0.88857
C         37.86128        23.08497        -0.75298
C         36.54839        22.38596        -0.50480
C         37.85146        24.54955        -1.10337
C         36.57148        25.27832        -0.77482
C         37.82541        27.38239        -0.45083
C         36.60027        26.66092        -0.63885
C         37.80408        28.79207        -0.22780
C         36.54557        29.52554        -0.25801
C         37.75771        31.66249         0.04656
C         36.54354        30.95645        -0.12365
C         37.74754        33.09148         0.11847
C         36.51833        33.80433        -0.03398
C         37.74226        35.94471         0.13456
C         36.52854        35.22727        -0.07589
C         37.71089        37.38941         0.16660
C         36.59043        38.09703        -0.22748
C         37.75697        40.25487         0.17880
C         36.53520        39.54666        -0.14014
C         37.76496        41.68100         0.12891
C         36.54414        42.39644        -0.02548
C         37.77864        44.52780         0.18486
C         36.54003        43.81561         0.08462
C         37.78635        45.97725         0.22043
C         36.58872        46.67300         0.27727
C         37.88611        48.84612         0.52086
C         36.56297        48.12119         0.53931
C         37.87576        50.30099         0.26118
C         36.59026        51.02276         0.46846
C         37.83117        53.18866        -0.19868
C         36.59436        52.53423         0.26765
C         37.85272        54.55381        -0.44945
C         36.59770        55.26196        -0.43361
C         40.31268        16.02287        -1.56055
C         39.11971        16.70292        -1.51939
C         40.29216        18.81661        -1.09316
C         39.07425        18.11064        -1.28924
C         40.28073        20.23806        -0.87873
C         39.06155        20.93616        -0.81058
C         40.32634        23.10474        -0.71611
C         39.05331        22.39162        -0.74991
C         40.32433        24.55039        -0.62277
C         39.10739        25.26945        -0.68259
C         40.27771        27.41124        -0.24941
C         39.06775        26.67723        -0.44964
C         40.24201        28.77639         0.00702
C         38.99995        29.47907         0.05121
C         40.16374        31.59641         0.51771
C         38.99053        30.92730         0.22246
C         40.21612        33.05612         0.34657
C         38.95828        33.81965         0.27736
C         40.20416        35.95121         0.65127
C         38.96491        35.23194         0.34243
C         40.18710        37.39132         0.74760
C         38.86235        38.10542         0.82821
C         40.18341        40.25323         0.55255
C         38.94550        39.56256         0.46776
C         40.20947        41.67007         0.37945
C         38.99039        42.38633         0.24783
C         40.24928        44.51077         0.15662
C         38.99567        43.81811         0.20266
C         40.26757        45.93647         0.06542
C         39.05642        46.67143         0.15279
C         40.31208        48.76911        -0.05397
C         39.10825        48.08832         0.17939
C         40.36585        50.26474         0.14480
C         39.02900        50.94384        -0.05773
C         40.28653        53.04504        -0.88805
C         39.00488        52.35910        -0.49173
C         40.30175        54.51790        -0.89996
C         39.12951        55.23907        -0.70243
C         40.37879        57.35649        -0.58931
C         39.20710        56.67516        -0.51397
C         42.78424        16.01935        -1.42576
C         41.54706        16.70789        -1.37340
C         42.77073        18.81207        -0.95939
C         41.53644        18.11398        -1.13773
C         42.73795        20.23965        -0.81093
C         41.53633        20.94480        -0.77968
C         42.77962        23.09755        -0.45494
C         41.53096        22.39654        -0.67001
C         42.76207        24.52857        -0.28958
C         41.56119        25.23855        -0.42812
C         42.76805        27.38084         0.14908
C         41.59612        26.74339        -0.55698
C         42.70426        28.69654         0.53286
C         41.53691        29.55716         0.10698
C         42.60860        31.58238         1.29357
C         41.33605        30.77185         1.02180
C         42.64777        33.06733         1.22571
C         41.48274        33.81315         0.65427
C         42.58857        35.93661         1.42565
C         41.38886        35.25860         0.88531
C         42.60011        37.43469         1.36903
C         41.36399        38.12131         0.94770
C         42.66162        40.23928         0.67841
C         41.40887        39.54701         0.78822
C         42.67335        41.64771         0.40415
C         41.45511        42.36583         0.33326
C         42.70979        44.47544         0.03003
C         41.46491        43.78797         0.17123
C         42.72944        45.89131        -0.12119
C         41.50939        46.62092        -0.08065
C         42.76509        48.71329        -0.41148
C         41.52249        48.04413        -0.20926
C         42.76912        50.14430        -0.86442
C         41.53617        50.93595        -0.53127
C         42.82239        52.98581        -0.89835
C         41.56367        52.29004        -0.77995
C         42.89266        54.42349        -1.37463
C         41.56206        55.19668        -1.26023
C         42.90362        57.36014        -0.91927
C         41.59130        56.70861        -1.10169
C         43.97353        16.69117        -1.21525
C         45.24486        18.74799        -0.60282
C         44.00124        18.08440        -0.95879
C         45.17633        20.18041        -0.26659
C         44.05019        20.97625        -0.88763
C         45.22410        23.08271        -0.12282
C         43.99786        22.40433        -0.41319
C         45.19871        24.49594         0.09108
C         44.00363        25.21382        -0.00215
C         45.21339        27.32765         0.44177
C         43.99455        26.63328         0.25602
C         45.20786        28.74449         0.66728
C         43.92585        29.36584         1.02903
C         45.17863        31.60620         1.08048
C         43.92707        30.85485         1.31463
C         45.15052        33.05316         1.15849
C         43.96142        33.76020         1.22270
C         45.22396        35.98846         1.67955
C         43.90938        35.20188         1.55779
C         45.17467        37.39954         1.09177
C         43.93299        38.17072         1.22974
C         45.13048        40.20036         0.42346
C         43.90403        39.55445         0.74221
C         45.13644        41.61015         0.16922
C         43.91592        42.33102         0.20178
C         45.15861        44.41948        -0.26364
C         43.92660        43.74480         0.00668
C         45.18035        45.84878        -0.39713
C         43.97587        46.57493        -0.28535
C         45.23275        48.70697        -0.49502
C         43.97130        48.00848        -0.40548
C         45.24203        50.15157        -0.45772
C         44.04039        50.87825        -0.52360
C         45.23613        53.05530        -0.29920
C         44.00635        52.30196        -0.61149
C         45.27032        54.51921        -0.51417
C         44.09827        55.19655        -0.82622
C         44.04958        56.64319        -0.81688
C         47.67254        18.80456        -0.21236
C         46.46090        18.10272        -0.45493
C         47.72976        20.18149        -0.06417
C         46.46590        20.92211         0.03480
C         47.71283        23.08727         0.03382
C         46.46578        22.39050        -0.04398
C         47.72653        24.48886         0.18076
C         46.44967        25.15447         0.61631
C         47.66339        27.33417         0.31219
C         46.46237        26.63726         0.41796
C         47.60883        28.80143         0.20229
C         46.37585        29.49569         0.61823
C         47.64336        31.64968         0.78833
C         46.37871        30.92439         0.82181
C         47.63765        33.06579         0.99411
C         46.41237        33.77869         1.15176
C         47.62422        35.87701         0.97749
C         46.41870        35.18369         1.20991
C         47.57050        37.27562         0.52715
C         46.32265        38.05163         0.67685
C         47.59668        40.15975         0.13894
C         46.35354        39.46624         0.38688
C         47.59811        41.56202        -0.13017
C         46.36272        42.28612        -0.13224
C         47.54289        44.33534        -1.02536
C         46.34985        43.67697        -0.38964
C         47.63059        45.82694        -0.75912
C         46.44082        46.54037        -0.57764
C         47.69272        48.67825        -0.66616
C         46.43525        47.98544        -0.55706
C         47.70213        50.12635        -0.56475
C         46.51121        50.82571        -0.41540
C         47.80250        53.01831        -0.32466
C         46.53229        52.28198        -0.16902
C         47.73036        54.45407        -0.27056
C         46.55180        55.15311        -0.32218
C         50.21880        20.27819        -0.11673
C         48.97355        20.93773        -0.07317
C         50.18790        23.09649        -0.02391
C         48.96054        22.36321        -0.02896
C         50.18546        24.53160         0.04539
C         48.94385        25.22637         0.16020
C         50.15846        27.39324         0.24928
C         48.92621        26.65959         0.23339
C         50.17169        28.80929         0.37213
C         48.92264        29.56920         0.24372
C         50.12071        31.65391         0.86514
C         48.87637        30.98351         0.64018
C         50.09987        33.05676         1.07683
C         48.87839        33.77255         1.06683
C         50.08594        35.97352         1.04549
C         48.86414        35.20760         1.01953
C         50.11078        37.32744         0.74027
C         48.87528        38.01262         0.32719
C         50.07963        40.17700         0.16090
C         48.84523        39.47978         0.23365
C         50.09208        41.55453        -0.20443
C         48.83952        42.26618        -0.39569
C         50.05788        44.28793        -1.34502
C         48.83381        43.60833        -0.77028
C         50.09498        45.80198        -1.11583
C         48.89731        46.51043        -0.92922
C         50.12329        48.72487        -1.02839
C         48.87457        47.96064        -0.85882
C         50.15362        50.13823        -0.60400
C         48.97079        50.84122        -0.52514
C         50.25203        52.95414        -0.76740
C         48.98424        52.30210        -0.47800
C         51.41013        20.98681        -0.12168
C         52.67512        23.13769        -0.10812
C         51.42794        22.39591        -0.08051
C         52.66714        24.56002        -0.04879
C         51.41420        25.26481         0.06002
C         52.64063        27.41278         0.27651
C         51.40528        26.67985         0.19795
C         52.63450        28.80228         0.54633
C         51.37942        29.52356         0.62093
C         52.61440        31.58668         1.37178
C         51.35121        30.91805         0.86768
C         52.63205        33.09152         1.22027
C         51.33928        33.78009         1.41928
C         52.62847        36.05514         1.58238
C         51.31319        35.28274         1.50346
C         52.55997        37.44423         0.98931
C         51.34193        38.09048         0.74266
C         52.53669        40.22239         0.39667
C         51.31942        39.48498         0.39736
C         52.51883        41.61893         0.09130
C         51.33006        42.24281        -0.30580
C         52.65717        44.36753        -0.89231
C         51.37492        43.58723        -0.95711
C         52.66004        45.82899        -1.10720
C         51.38148        46.49293        -1.58955
C         52.67965        48.70165        -1.03776
C         51.39550        48.01101        -1.34384
C         52.70572        50.07620        -0.72910
C         51.46053        50.83499        -0.31782
C         51.41350        52.26725        -0.78907
C         55.10089        23.16796        -0.28694
C         53.91122        22.46431        -0.20059
C         55.11302        24.57311        -0.28096
C         53.89554        25.28587        -0.12024
C         55.09030        27.45678         0.06557
C         53.88921        26.72718         0.05536
C         55.11184        28.84915         0.38480
C         53.87133        29.52920         0.63013
C         55.07594        31.65733         0.81508
C         53.87316        30.92098         0.87735
C         55.06584        33.09648         0.85569
C         53.79811        33.81092         1.03625
C         54.99240        35.97774         0.85248
C         53.82022        35.26571         1.06041
C         55.02101        37.41096         0.90309
C         53.79013        38.14830         0.86559
C         55.02721        40.27329         0.56748
C         53.77991        39.54636         0.61726
C         55.03284        41.66783         0.41864
C         53.73893        42.43754         0.43593
C         55.04524        44.45266        -0.26288
C         53.84513        43.76888        -0.25462
C         55.10014        45.82986        -0.71984
C         53.85092        46.51327        -1.05863
C         55.12386        48.66138        -1.08985
C         53.88865        47.97780        -1.12406
C         55.13662        50.03685        -0.84388
C         53.94471        50.71783        -0.59635
C         57.68898        24.62945        -0.35548
C         56.38263        25.29934        -0.50593
C         57.62621        27.49695        -0.02223
C         56.35807        26.81261        -0.32192
C         57.61339        28.87244         0.30887
C         56.33942        29.56303         0.45781
C         57.54337        31.71223         0.67552
C         56.32523        30.96917         0.65804
C         57.50890        33.10822         0.63252
C         56.25656        33.79456         0.68561
C         57.48983        35.95249         1.06964
C         56.26725        35.28011         0.43906
C         57.47901        37.42720         0.75282
C         56.27523        38.11189         0.80038
C         57.46778        40.28156         0.84304
C         56.26951        39.57385         0.72138
C         57.49191        41.69452         0.65487
C         56.25869        42.38456         0.40647
C         57.50216        44.48344         0.09017
C         56.27545        43.78387         0.12091
C         57.52544        45.85899        -0.31907
C         56.31318        46.50014        -0.75894
C         57.66470        48.60223        -1.13692
C         56.37584        47.86960        -1.40458
C         58.83525        25.33932        -0.24048
C         60.05218        27.46483         0.15506
C         58.84357        26.78141        -0.08198
C         60.04426        28.82840         0.42980
C         58.84092        29.54684         0.49890
C         59.97974        31.77917         0.17427
C         58.87108        31.01353         0.85973
C         59.93471        33.12285         0.08878
C         58.75127        33.87256         0.49367
C         59.98833        36.01792         0.65528
C         58.76687        35.24091         0.67158
C         59.99627        37.36956         0.64344
C         58.75029        38.19018         0.44155
C         59.96930        40.34033         1.11304
C         58.71989        39.51457         1.23123
C         59.94810        41.67433         0.90962
C         58.72084        42.41529         0.68236
C         59.93305        44.58594         0.45050
C         58.73190        43.81472         0.42326
C         59.92941        45.92606         0.12952
C         58.73884        46.57686        -0.28420
C         58.76191        47.97606        -0.66531
O         27.06227        31.14991        -1.60520
O         41.39030        56.08507        -2.42504
O         37.27673        48.46595         1.80610
O         43.02821        35.41569         2.72807
O         43.94666        29.87877         2.41038
O         35.01363        37.56322        -2.13259
O         39.40680        52.47482        -1.92760
O         50.67482        48.67218        -2.45039
O         48.20866        29.32144        -1.03196
O         30.78515        39.94729        -2.09981
O         52.28654        43.56734        -2.10891
O         51.14358        34.48252         2.72473
O         45.52469        20.47252         1.10762
O         42.39098        32.39058         2.51185
O         41.19360        33.43703        -0.73510
O         48.17252        37.38781        -0.81602
O         43.23630        38.02402         2.53989
O         36.68686        51.93120         1.62257
O         56.31923        26.20235        -1.66267
O         45.76937        52.68045         1.02605
O         58.59354        39.12273         2.63407
H         58.54101        39.94204         3.16961
O         43.17982        54.29773        -2.80226
H         42.73028        55.06083        -3.24097
O         45.46617        36.19762         3.09786
H         44.58255        36.37278         3.50358
O         33.00808        35.71983        -2.55875
H         33.80343        36.24098        -2.82981
O         40.93057        30.21717         2.29601
H         41.18695        30.86512         2.99108
O         30.51891        46.38092        -1.79979
H         29.90044        45.80644        -2.29652
O         34.38228        39.99573        -2.53529
H         34.93731        39.27980        -2.92593
O         51.40768        46.31641        -3.04419
H         50.93707        47.10203        -3.41786
O         42.77614        50.05105        -2.34708
H         42.72782        50.96733        -2.69807
O         52.59484        31.34436         2.83162
H         53.36109        31.81939         3.21835
O         35.26526        27.50033        -2.38051
H         34.40571        27.91590        -2.60917
O         51.56057        50.90058         1.15503
H         50.80537        51.43920         1.47524
O         35.52933        23.03609        -2.61252
H         36.35867        23.53161        -2.83751
O         33.01951        44.85825        -2.10549
H         32.60815        44.07446        -2.54716
O         28.79797        35.28136        -2.28311
H         29.00782        36.18395        -2.60575
O         40.65344        50.45479         1.58224
H         39.92648        50.03123         2.08910
O         59.16513        31.06438         2.29887
H         59.14221        32.00776         2.56707
O         41.83354        27.03296        -1.99255
H         41.15524        26.54068        -2.50358
O         37.87510        24.56407        -2.60861
H         37.65879        25.48209        -2.88605
O         31.75295        26.56462         1.61714
H         32.48720        25.95312         1.84358
O         56.33645        47.64568        -2.85555
H         57.08524        47.05495        -3.08231
O         57.35875        35.83921         2.51589
H         57.89903        36.54990         2.92326
O         30.20115        24.52277        -1.99995
H         29.36755        24.04753        -2.20505
O         38.52085        38.07473         2.27227
H         39.26514        38.49219         2.75728
O         41.87669        30.03979        -1.21897
H         41.94418        29.25137        -1.80614
O         31.42415        46.40632         1.73293
H         32.23871        46.68855         2.20113
O         58.71319        38.54960        -0.96820
H         58.55129        37.73056        -1.48222
O         36.26735        22.47074         0.93759
H         36.97339        21.98207         1.41190
O         25.79604        27.48108         2.50176
H         25.85644        26.55953         2.83386
O         56.41711        35.46686        -1.00243
H         55.67007        35.01227        -1.44516
O         52.90783        36.28946         2.99752
H         52.48078        35.54617         3.48743
O         33.29998        22.96942         1.26284
H         34.28012        22.85252         1.31964
O         27.18417        37.94196         2.15524
H         26.45807        38.37813         2.65067
O         53.51278        42.78883         1.86886
H         54.34703        43.18291         2.20396
O         31.50244        42.55019        -2.37208
H         31.35862        41.61737        -2.68446
O         35.21491        45.82594         1.97845
H         35.65428        46.61667         2.36278
O         47.27290        44.22557        -2.47578
H         48.15734        44.23912        -2.92875
O         49.91489        44.11995        -2.79352
H         50.65519        44.64366        -3.20098
O         44.39970        21.03672        -2.31611
H         43.67414        21.50403        -2.78189
O         46.40065        24.95529         2.08801
H         46.34452        23.98795         2.24611
H         22.13187        26.80566         0.84869
H         22.09329        29.26637         0.76647
H         22.10971        31.18754         1.01513
H         22.11004        33.61561         0.89356
H         22.08090        35.49244         0.65947
H         22.15349        37.90883         0.91251
H         22.28171        39.69610         1.57007
H         22.27572        42.12381         1.64043
H         22.20387        43.98961         1.44217
H         22.17702        46.44586         1.42276
H         25.50054        23.44434         0.83659
H         23.38467        24.65554         1.00449
H         25.40470        49.87647         0.81114
H         23.34426        48.59276         1.18830
H         27.05891        22.50523         0.29834
H         27.00658        50.85368         0.50021
H         29.10029        21.25632         0.01094
H         29.07475        52.08519         0.26918
H         32.92170        19.13621        -0.52394
H         30.80140        20.26514        -0.14448
H         32.81529        54.25335         0.03815
H         30.71908        53.04402         0.08619
H         34.45041        18.33705        -1.60879
H         34.46933        55.19200        -0.39139
H         36.55851        17.11049        -1.72963
H         36.58418        56.33625        -0.66132
H         40.32623        14.93812        -1.73964
H         38.18758        16.14192        -1.66620
H         40.43424        58.41047        -0.27995
H         38.30836        57.20555        -0.17037
H         42.78856        14.93762        -1.62226
H         42.92947        58.45587        -0.82524
H         44.91399        16.12452        -1.24154
H         44.98421        57.19254        -0.63482
H         48.59978        18.21578        -0.23633
H         46.53577        17.01926        -0.62261
H         48.66805        55.02431        -0.20509
H         46.60932        56.25024        -0.30683
H         50.26157        19.18148        -0.14094
H         50.24608        54.02179        -1.03015
H         52.34811        20.41837        -0.15664
H         52.34940        52.78328        -1.04697
H         56.03834        22.60766        -0.39756
H         53.95109        21.36863        -0.23609
H         56.08519        50.58761        -0.79162
H         53.98524        51.77760        -0.31022
H         57.73447        23.53143        -0.35377
H         57.74046        49.64896        -1.46497
H         59.79956        24.81412        -0.17051
H         61.00176        26.91146         0.13119
H         60.99681        29.34008         0.62446
H         60.87868        31.24127        -0.16017
H         60.78769        33.67247        -0.33541
H         60.94931        35.48119         0.67885
H         60.96272        37.89449         0.62478
H         60.93317        39.84048         1.28954
H         60.90438        42.21543         0.88596
H         60.88260        44.11463         0.73571
H         60.86539        46.50214         0.16590
H         59.71223        48.52173        -0.56096
