         630
 CSIRO Nanostructure Databank - Neutral Graphene Oxide Data Set
C         23.16462        27.23496        -0.33354
C         23.15167        28.59704        -0.55818
C         23.09207        31.54439        -0.51391
C         23.08706        32.94707        -0.61562
C         22.99561        35.90366        -0.40962
C         22.98940        37.25223        -0.20515
C         22.93196        40.24954         0.09113
C         22.95041        41.59554         0.27125
C         22.97411        44.52084         0.60471
C         22.97770        45.86749         0.86565
C         25.51605        24.48605         0.62673
C         24.38805        25.14938         0.26896
C         25.52866        27.34311         0.23992
C         24.35085        26.58675         0.10022
C         25.56344        28.72206        -0.11884
C         24.33216        29.37979        -0.44989
C         25.53020        31.56967        -0.72602
C         24.28046        30.81606        -0.56612
C         25.52089        33.03283        -0.57596
C         24.26371        33.70031        -0.61780
C         25.48950        35.88952        -0.37608
C         24.24013        35.19688        -0.87483
C         25.43570        37.34831        -0.19234
C         24.18742        38.02823        -0.20403
C         25.39847        40.26738        -0.06284
C         24.14133        39.52738        -0.44197
C         25.39762        41.66335         0.02799
C         24.15286        42.38167         0.11810
C         25.37501        44.53855         0.01345
C         24.16344        43.80558         0.23055
C         25.28248        45.98008         0.05790
C         24.14691        46.64507         0.60958
C         25.36951        48.77919         0.63731
C         24.21338        48.04360         0.86299
C         28.08590        23.13095         1.21640
C         28.04457        24.53283         1.12827
C         26.72629        25.20962         1.05612
C         28.02035        27.40522         0.70682
C         26.72670        26.71766         0.81805
C         28.00534        28.79383         0.37419
C         26.80307        29.43061        -0.03433
C         28.03988        31.64262        -0.11424
C         26.86567        30.83118        -0.46486
C         27.97969        33.05553        -0.16124
C         26.73198        33.74101        -0.37255
C         27.86835        35.91621         0.32924
C         26.66159        35.18497        -0.21450
C         27.90059        37.35303        -0.14156
C         26.62622        38.07186        -0.07440
C         27.90699        40.25421         0.21484
C         26.60884        39.50201         0.37359
C         27.87609        41.67882         0.27941
C         26.64172        42.39927         0.14108
C         27.91357        44.48100         0.08386
C         26.64219        43.82129         0.00742
C         28.11123        45.83973        -0.30182
C         26.30982        46.84090        -0.39578
C         27.79541        48.81736        -0.19232
C         26.48404        48.17266        -0.00131
C         27.84072        50.19898        -0.45119
C         30.51935        23.16874         1.20727
C         29.29614        22.46472         1.24729
C         30.51632        24.59366         1.23022
C         29.25317        25.27569         1.14959
C         30.44850        27.44489         1.02286
C         29.22167        26.71476         0.96137
C         30.43004        28.86182         0.81754
C         29.23003        29.53758         0.44389
C         30.45035        31.69549         0.39371
C         29.23313        30.95424         0.24867
C         30.43887        33.10965         0.27419
C         29.20252        33.80877         0.08183
C         30.39343        35.94782         0.38039
C         29.18690        35.20952         0.16081
C         30.38626        37.38004         0.44431
C         29.18709        38.11424         0.03853
C         30.34833        40.27858         0.46616
C         29.13049        39.58061         0.22943
C         30.30928        41.67229         0.70098
C         29.09914        42.37119         0.53045
C         30.25177        44.54790         0.82818
C         29.09952        43.81079         0.53457
C         30.21269        46.01708         0.88163
C         29.07456        46.68627         0.23407
C         30.25734        48.85262         0.10329
C         29.03423        48.12120         0.02716
C         30.26722        50.20303        -0.28690
C         29.05441        50.85952        -0.57977
C         32.92659        20.34568         0.64121
C         31.76550        21.04019         0.90488
C         32.99429        23.15822         1.00833
C         31.76523        22.44649         1.06920
C         33.00839        24.60225         1.21975
C         31.76851        25.31695         1.33297
C         32.70920        27.61168         1.83850
C         31.66388        26.77286         1.39458
C         32.77676        28.99742         1.54408
C         31.62875        29.62241         0.97104
C         32.89747        31.74416         0.81597
C         31.66032        31.01928         0.72440
C         32.90089        33.14167         0.67323
C         31.65270        33.84220         0.48171
C         32.85759        35.98052         0.96277
C         31.61602        35.24264         0.53960
C         32.81625        37.42834         0.60291
C         31.60993        38.11290         0.56442
C         32.78934        40.29654         0.72165
C         31.60233        39.57918         0.55069
C         32.82866        41.70741         0.95333
C         31.52747        42.37696         1.14357
C         32.76097        44.64100         1.19957
C         31.48739        43.89552         1.27149
C         32.78190        46.01525         1.02720
C         31.50290        46.78546         1.05988
C         32.81972        48.81730         0.32142
C         31.49249        48.30253         0.83375
C         32.86185        50.23609        -0.09471
C         31.55515        50.94854        -0.41261
C         32.82169        52.50912        -1.85488
C         31.63604        52.03568        -1.40368
C         35.43875        18.89970         0.24116
C         35.38723        20.29029         0.21473
C         34.16292        21.02589         0.54634
C         35.53430        23.09265         0.76684
C         34.18628        22.41988         0.74418
C         35.44226        24.57640         0.54387
C         34.29852        25.24963         1.08624
C         35.61604        27.35894         1.08823
C         34.56388        26.56727         1.55719
C         35.78477        28.71071         1.43962
C         33.95708        29.77746         1.71879
C         35.40796        31.70521         0.98093
C         34.12191        31.05807         1.15529
C         35.39160        33.12481         0.72038
C         34.15513        33.85077         0.69331
C         35.34773        35.98679         0.47710
C         34.14230        35.26688         0.61506
C         35.34547        37.44876         0.39819
C         34.04388        38.18036         0.18430
C         35.26993        40.38108         0.44161
C         34.08324        39.54562         0.87976
C         35.29442        41.79709         0.86118
C         34.03071        42.43262         1.07153
C         35.28822        44.61680         1.20769
C         34.01930        43.87340         1.55458
C         35.27287        46.02710         1.06287
C         34.02446        46.73433         0.90072
C         35.28375        48.92250         0.55397
C         33.99941        48.11857         0.52248
C         35.32609        50.07557        -0.42871
C         34.10899        50.75729        -0.69452
C         35.33426        52.48777        -1.91864
C         34.09206        51.92343        -1.47804
C         35.38060        53.68552        -2.68624
C         37.76488        18.86793        -0.52428
C         36.60511        18.20308        -0.11177
C         37.74975        20.30305        -0.61351
C         36.55285        21.02073        -0.21592
C         37.61575        23.20276        -0.69164
C         36.54889        22.41416        -0.11292
C         37.72452        24.63748        -0.38627
C         36.57243        25.29206         0.11777
C         37.83478        27.48648        -0.02883
C         36.49076        26.79591         0.00405
C         37.89108        28.86730         0.24354
C         36.73779        29.56629         0.83385
C         37.96182        31.74160         0.82633
C         36.64481        30.98144         0.86972
C         37.87627        33.18821         0.41117
C         36.60441        33.86396         0.51627
C         37.87649        36.01052         0.45022
C         36.56316        35.27048         0.40481
C         37.77332        37.46771         0.08059
C         36.50486        38.16888         0.32504
C         37.82268        40.37062         0.46295
C         36.55025        39.65144         0.20994
C         37.78993        41.75565         0.80140
C         36.52401        42.46427         0.95802
C         37.74319        44.61378         1.18898
C         36.51359        43.90708         1.13692
C         37.74048        46.01844         1.20290
C         36.52148        46.73325         1.01444
C         37.75262        48.73692         0.32475
C         36.55364        48.10948         0.59906
C         37.81288        49.81485        -0.72283
C         36.53921        50.61666        -0.85266
C         37.80984        52.50217        -1.86195
C         36.56384        51.85757        -1.56144
C         37.81753        53.73109        -2.56951
C         36.57777        54.27154        -3.01627
C         40.22400        16.03406        -0.85510
C         39.04013        16.71991        -0.75222
C         40.19641        18.85964        -1.01579
C         39.00146        18.14930        -0.78992
C         40.19224        20.31113        -1.05523
C         38.94062        20.99666        -0.91294
C         40.16977        23.21113        -1.12613
C         38.91945        22.44166        -1.12380
C         40.12682        24.61209        -1.02001
C         38.93173        25.33465        -0.65831
C         40.22498        27.47069        -0.56992
C         38.98807        26.76267        -0.44114
C         40.25448        28.88547        -0.42083
C         39.07743        29.60229        -0.02223
C         40.22748        31.74699        -0.26452
C         39.09658        31.01741         0.13376
C         40.25742        33.16582        -0.21378
C         39.03467        33.85959         0.03011
C         40.29006        36.05821        -0.16222
C         38.97378        35.31787        -0.36728
C         40.30399        37.45789         0.06045
C         39.04807        38.24059         0.01210
C         40.27011        40.32099         0.68015
C         39.04272        39.67701         0.38336
C         40.24379        41.69623         1.06853
C         39.02571        42.41018         1.07209
C         40.26703        44.59142         1.76869
C         38.99408        43.85118         1.45913
C         40.30898        46.14181         1.84079
C         38.96371        46.80044         1.47807
C         40.29255        49.00630         0.85177
C         38.97278        48.24463         0.97601
C         40.26139        50.10905        -0.19749
C         39.07812        50.63230        -0.71256
C         40.24851        52.58262        -1.62043
C         39.05913        51.89717        -1.41824
C         40.24703        53.97098        -2.09379
C         39.04392        54.48691        -2.75266
C         40.35057        56.35759        -3.68979
C         39.12630        55.69463        -3.44201
C         42.69446        16.04489        -1.05624
C         41.45585        16.73333        -1.01447
C         42.66333        18.84833        -1.32918
C         41.43957        18.15235        -1.13560
C         42.64779        20.31982        -1.65159
C         41.38112        21.03162        -1.23796
C         42.65642        23.13297        -1.09905
C         41.40883        22.47102        -1.18927
C         42.71325        24.59535        -1.22421
C         41.37323        25.36894        -1.22114
C         42.67163        27.47146        -0.88414
C         41.43410        26.79309        -0.88459
C         42.68450        28.90498        -0.84604
C         41.46067        29.57978        -0.68307
C         42.68104        31.79978        -1.01356
C         41.38586        31.03602        -0.82450
C         42.67820        33.23612        -0.69733
C         41.48829        33.89625        -0.44208
C         42.74027        36.04774        -0.18769
C         41.49587        35.34894        -0.26888
C         42.74345        37.44857         0.09369
C         41.51334        38.16163         0.22569
C         42.74239        40.24439         0.59251
C         41.51598        39.58101         0.51625
C         42.79933        41.62556         1.11612
C         41.51686        42.33743         1.49806
C         42.77930        44.54060         1.17890
C         41.61713        43.84089         1.86439
C         42.77377        46.02438         1.27524
C         41.49920        46.78009         1.12330
C         42.76484        48.79098         0.39219
C         41.51614        48.09621         0.72832
C         42.74704        50.12231        -0.16680
C         41.51733        50.71218        -0.52119
C         42.84634        52.61448        -1.64231
C         41.51884        51.89480        -1.38432
C         42.85795        53.99175        -2.14948
C         41.58782        54.69221        -2.36040
C         42.84068        56.41067        -3.62073
C         41.57256        55.85055        -3.25868
C         43.87704        16.74149        -1.18506
C         45.14758        18.89657        -1.41078
C         43.88168        18.15613        -1.33361
C         45.15284        20.29992        -1.22290
C         43.90507        21.02210        -1.19105
C         45.13319        23.08685        -0.60088
C         43.87839        22.38934        -0.97035
C         45.13662        24.58992        -0.47266
C         43.91334        25.35041        -0.82600
C         45.13134        27.46624        -0.27899
C         43.90774        26.72366        -0.78162
C         45.18283        28.91317        -0.75234
C         43.93027        29.64460        -0.92858
C         45.17919        31.79423        -0.91159
C         43.94545        31.04348        -0.96688
C         45.20994        33.17153        -0.78406
C         43.94718        33.98770        -0.99265
C         45.19803        36.02166        -0.21606
C         43.97386        35.36475        -0.38820
C         45.20634        37.42809         0.06689
C         43.98246        38.14170         0.17929
C         45.20783        40.26774         0.44416
C         43.98148        39.55639         0.39989
C         45.20886        41.71268         0.53465
C         44.02357        42.41153         0.84162
C         45.14092        44.60409         0.39942
C         43.93706        43.85449         0.84916
C         45.26438        46.03154         0.65572
C         44.05678        46.77410         1.03582
C         45.23996        48.86167         0.38355
C         43.99602        48.16999         0.57521
C         45.22198        50.21761         0.02509
C         43.99960        50.82078        -0.38213
C         45.29150        52.78161        -1.26542
C         44.05246        52.09120        -1.01234
C         45.30988        53.96738        -2.06881
C         44.05998        54.60493        -2.47168
C         44.02049        55.85731        -3.19269
C         47.58146        18.91444        -1.55775
C         46.37827        18.23002        -1.59319
C         47.62822        20.30623        -1.30159
C         46.39886        21.00745        -1.12835
C         47.62928        23.12771        -0.81671
C         46.41943        22.40822        -0.85649
C         47.64110        24.57115        -0.66404
C         46.42738        25.29690        -0.57786
C         47.64345        27.39094        -0.50017
C         46.42364        26.70568        -0.53673
C         47.61007        28.86365        -0.38802
C         46.37357        29.57829        -0.78980
C         47.73177        31.76205        -1.06109
C         46.41413        31.01213        -1.30460
C         47.69930        33.21135        -0.71776
C         46.46223        33.89727        -0.62529
C         47.67037        35.97255        -0.04857
C         46.45120        35.29399        -0.32388
C         47.66955        37.41176         0.15859
C         46.44080        38.13358         0.17279
C         47.67783        40.26652         0.29532
C         46.43870        39.55770         0.31714
C         47.68534        41.71038         0.30236
C         46.46587        42.39273         0.35988
C         47.71028        44.58888         0.30360
C         46.44983        43.84686         0.17308
C         47.71544        45.99237         0.37387
C         46.47518        46.71920         0.49758
C         47.72723        48.86866         0.53007
C         46.48359        48.15757         0.53025
C         47.74777        50.27588         0.23000
C         46.46136        51.06270         0.16059
C         47.74997        52.80852        -1.15235
C         46.51600        52.22198        -0.80812
C         47.74603        53.96174        -1.97331
C         46.55828        54.52825        -2.40675
C         50.12066        20.35754        -1.35816
C         48.87486        21.02812        -1.21678
C         50.11840        23.14567        -0.93710
C         48.87579        22.43185        -0.99363
C         50.12914        24.56641        -0.73877
C         48.88163        25.27768        -0.64400
C         50.14213        27.40655        -0.43563
C         48.88526        26.69786        -0.53189
C         50.17881        28.81866        -0.34594
C         48.91030        29.57540        -0.33163
C         50.22199        31.70190        -0.33039
C         48.98369        31.00589        -0.72193
C         50.21044        33.15506        -0.48384
C         48.91010        33.88037        -0.42484
C         50.12206        35.88519         0.44692
C         48.88989        35.23938        -0.05124
C         50.12675        37.42212         0.56960
C         48.88001        38.13821         0.25769
C         50.16620        40.27183         0.06180
C         48.88748        39.54813         0.22370
C         50.19888        41.73622         0.21858
C         48.94133        42.44150         0.24695
C         50.18124        44.60332         0.21784
C         48.92216        43.84740         0.29799
C         50.17347        46.02033         0.59546
C         48.96528        46.71023         0.55118
C         50.19307        48.85533         0.85223
C         48.93414        48.14258         0.67332
C         50.21220        50.35393         0.47080
C         48.95067        50.94623         0.00209
C         50.25263        52.75380        -0.98994
C         49.00513        52.20391        -0.69682
C         51.31224        21.03999        -1.29463
C         52.59839        23.16075        -1.03140
C         51.34831        22.44645        -1.08928
C         52.60268        24.56148        -0.79265
C         51.36088        25.26440        -0.65302
C         52.60314        27.38440        -0.28397
C         51.37653        26.68907        -0.45376
C         52.61631        28.80766        -0.09807
C         51.38431        29.52802        -0.18942
C         52.62412        31.66654         0.24096
C         51.39061        30.98214        -0.10833
C         52.63094        33.05006         0.37082
C         51.50177        33.85880        -0.09906
C         52.59662        35.93799         0.69741
C         51.42829        35.25255         0.35309
C         52.59980        37.38372         0.75894
C         51.41933        38.08697         0.53504
C         52.70042        40.24209         0.56448
C         51.47256        39.51414         0.20365
C         52.68932        41.67972         0.49042
C         51.44271        42.37957         0.28730
C         52.72844        44.57898         0.47640
C         51.47758        43.84903         0.17878
C         52.72178        45.93174         0.73799
C         51.44041        46.65361         1.12562
C         52.66434        48.82307         0.78854
C         51.48134        48.13433         0.83114
C         52.71970        50.23681         0.44634
C         51.50008        50.93313         0.07219
C         51.47066        52.12115        -0.64488
C         55.03640        23.18095        -1.14502
C         53.84565        22.49709        -1.20508
C         55.07504        24.58091        -0.88734
C         53.84509        25.26910        -0.70154
C         55.07424        27.33958        -0.20216
C         53.85364        26.66787        -0.37966
C         55.08512        28.71155         0.41812
C         53.82695        29.49989         0.17032
C         55.08065        31.56735         0.65969
C         53.85050        30.90034         0.41240
C         55.09525        32.98178         1.05815
C         53.77375        33.76622         0.94600
C         55.05853        35.91915         0.97106
C         53.83987        35.23343         0.83917
C         55.06738        37.35802         0.99480
C         53.85515        38.08362         0.89050
C         55.07040        40.25614         1.36970
C         53.84438        39.52161         0.89695
C         55.11844        41.69428         0.90560
C         53.92544        42.37579         0.59386
C         55.22268        44.54752         0.66513
C         53.99734        43.83309         0.17047
C         55.18613        45.96519         0.83564
C         53.95670        46.64803         0.86137
C         55.20644        48.83331         0.96884
C         53.91770        48.10410         1.25782
C         55.17125        50.17696         0.65211
C         53.95855        50.86928         0.40612
C         57.56848        24.67012        -1.09089
C         56.31850        25.30314        -0.82212
C         57.54263        27.41691        -0.41739
C         56.30733        26.68279        -0.46627
C         57.55281        28.82754        -0.12724
C         56.34216        29.50361         0.15959
C         57.56908        31.60414         0.49991
C         56.33857        30.89146         0.44135
C         57.61523        32.99586         1.09476
C         56.32991        33.77779         0.97814
C         57.56447        35.91451         0.96912
C         56.31383        35.16890         1.00070
C         57.56312        37.34131         1.01068
C         56.32704        38.08183         1.05747
C         57.57896        40.20599         1.11905
C         56.34646        39.48573         1.11190
C         57.58959        41.64789         1.13560
C         56.35844        42.37807         0.95941
C         57.63394        44.51376         1.14467
C         56.39710        43.81647         0.89298
C         57.63826        45.94284         1.19692
C         56.42412        46.67876         1.07626
C         57.69061        48.76480         1.28150
C         56.44559        48.09646         1.11726
C         58.74858        25.37116        -1.04097
C         59.97584        27.50235        -0.72877
C         58.75831        26.76053        -0.72095
C         59.98374        28.85101        -0.46399
C         58.78125        29.55226        -0.15640
C         59.99375        31.71445         0.16373
C         58.78045        30.95354         0.18201
C         59.99928        33.08481         0.36408
C         58.83131        33.78982         0.70984
C         60.01755        35.95958         0.82045
C         58.80240        35.21192         0.84396
C         60.01670        37.32554         0.93026
C         58.79836        38.05696         1.01742
C         60.02715        40.22518         1.17558
C         58.80658        39.49021         1.09653
C         60.02979        41.59394         1.26901
C         58.81730        42.34356         1.23665
C         60.05119        44.51584         1.50794
C         58.84087        43.79266         1.29922
C         60.06754        45.89230         1.54902
C         58.86786        46.63873         1.39166
C         58.86588        48.05887         1.42789
O         28.71310        37.65352        -1.31176
O         30.66009        46.48642         2.22610
O         49.93674        36.55414         1.74129
O         42.08368        25.06066        -2.46491
O         45.03302        23.74270         0.72479
O         40.83897        54.89159        -1.10680
O         38.29427        37.89627        -1.22957
O         48.13254        29.37741         0.91618
O         45.60061        44.25407        -0.95840
O         32.24708        51.19245         0.85076
O         26.37033        31.07779        -1.82259
O         26.49100        26.14332         2.16018
O         51.13881        33.65631        -1.51449
O         42.26733        51.67887        -2.65424
O         35.01184        29.24828         2.48613
O         50.15617        49.91499         1.86382
O         54.25125        33.25695         2.23190
O         39.42342        44.08857         2.86696
O         41.81313        31.48338        -2.16451
O         27.25492        46.32787        -1.29840
O         48.67557        31.36502        -2.12595
O         31.36609        43.02411         2.47379
O         50.88873        44.35105        -1.09397
O         37.92367        22.89302        -2.08816
O         38.68658        47.91114         2.37729
O         50.92337        39.82805        -1.13098
O         33.74561        27.03956         2.59845
O         35.75674        40.18500        -0.93253
O         42.26826        41.58829         2.50304
O         43.58675        46.52748         2.40964
O         38.36324        31.79801         2.25866
H         38.34912        30.87822         2.60173
O         57.76117        32.75584         2.55944
H         57.74195        33.63272         2.99981
O         35.26663        49.56672         1.87441
H         34.38189        49.97430         2.00305
O         27.66793        36.01826         1.77933
H         27.64396        35.10950         2.14613
O         44.97979        27.52514         1.17412
H         45.80260        27.91164         1.54407
O         38.30023        36.01113         1.84592
H         38.30801        35.08071         2.15999
O         31.39456        48.90953         2.15764
H         30.86932        48.28394         2.71188
O         34.26325        39.27097         2.29970
H         34.14740        40.11294         2.79024
O         53.78087        48.08553         2.73830
H         53.70766        49.01867         3.03460
O         40.49319        49.72073         2.09798
H         40.19280        49.11550         2.81728
O         46.26337        30.90136        -2.75471
H         47.17357        30.87939        -3.13425
O         36.04560        22.95305         2.15010
H         35.37081        23.33810         2.74964
O         33.88040        38.36128        -1.24594
H         34.61667        38.94910        -1.55370
O         54.11094        43.81057        -1.30399
H         53.21835        43.61141        -1.66374
O         38.64512        35.32357        -1.77180
H         38.58345        36.26820        -2.05469
O         35.83498        27.08579        -1.27913
H         36.38743        26.69265        -1.98806
O         26.44080        39.39892         1.85741
H         26.45988        40.31420         2.21280
O         24.24337        35.33262        -2.34115
H         25.08767        34.95683        -2.67020
O         32.81912        35.97450         2.45225
H         33.48025        36.63184         2.76243
O         33.99487        43.78861         3.02783
H         33.07796        43.50591         3.26940
O         40.56613        46.45375         3.22438
H         39.98752        45.87208         3.76523
O         42.68007        20.39438        -3.12892
H         42.56682        21.33752        -3.37546
O         46.32316        51.68231         1.49940
H         47.18612        52.09139         1.72473
O         43.92087        34.22764        -2.44899
H         43.75132        33.36498        -2.88731
O         37.90082        49.04858        -1.99390
H         37.99268        49.70153        -2.72117
O         54.95308        40.32927         2.84398
H         54.90853        39.40809         3.17873
O         24.03659        39.63011        -1.92178
H         23.99309        40.58568        -2.14114
O         41.98406        43.91859         3.25743
H         41.22296        43.57652         3.77576
O         55.11121        28.45953         1.88284
H         55.12292        29.33582         2.32604
O         51.37009        46.52808         2.58595
H         52.16633        46.99853         2.94171
H         22.24582        26.64521        -0.46189
H         22.21059        29.07841        -0.85701
H         22.12871        31.02519        -0.41810
H         22.11290        33.45187        -0.65781
H         22.04071        35.36000        -0.39223
H         22.02586        37.75394        -0.03133
H         21.98367        39.70649         0.21000
H         22.01576        42.09520         0.56142
H         22.04404        43.96173         0.77089
H         22.07105        46.36281         1.24145
H         25.52317        23.38733         0.60176
H         23.48420        24.58206         0.00096
H         25.41732        49.83406         0.94229
H         23.33709        48.53619         1.30821
H         27.15604        22.54929         1.25714
H         26.90281        50.75032        -0.60536
H         29.28153        21.36980         1.30095
H         29.05610        51.92564        -0.84278
H         32.87319        19.26060         0.48442
H         30.82775        20.47382         0.95440
H         32.81069        53.33111        -2.58304
H         30.70543        52.45047        -1.81595
H         34.56921        18.31498         0.57019
H         34.45100        54.17114        -3.00933
H         36.58980        17.10848        -0.03204
H         36.56732        55.20489        -3.59392
H         40.23551        14.93574        -0.80391
H         38.10986        16.15080        -0.62592
H         40.33768        57.26886        -4.30537
H         38.22150        56.13522        -3.88270
H         42.70371        14.94956        -0.96085
H         42.85514        57.32684        -4.22931
H         44.82463        16.18664        -1.17531
H         44.96247        56.35357        -3.46140
H         48.50783        18.34891        -1.72135
H         46.39643        17.14888        -1.78432
H         48.69246        54.43058        -2.27292
H         46.60563        55.42971        -3.03174
H         50.14661        19.27226        -1.51959
H         50.31715        53.69851        -1.54594
H         52.24568        20.47392        -1.40668
H         52.40878        52.59407        -0.96786
H         55.97010        22.62142        -1.28713
H         53.87358        21.41679        -1.39692
H         56.10943        50.73395         0.51773
H         54.01748        51.93324         0.13831
H         57.59772        23.60546        -1.35741
H         57.71620        49.86235         1.32562
H         59.70109        24.86948        -1.26435
H         60.91505        26.98011        -0.96169
H         60.94258        29.38500        -0.48604
H         60.94189        31.22646        -0.09485
H         60.94371        33.62345         0.20631
H         60.97978        35.43722         0.74764
H         60.97955        37.85137         0.93025
H         60.99037        39.69957         1.18360
H         60.99470        42.11191         1.34083
H         60.99776        43.97648         1.64345
H         61.01393        46.42849         1.70951
H         59.81559        48.59205         1.57844
