         236
 CSIRO Nanostructure Databank - Neutral Graphene Oxide Data Set
C        -11.25782         0.61870        -0.12406
C        -10.03444         1.38577         0.22070
C         -8.73587         0.65405         0.18303
C         -7.46357         1.39703        -0.00196
C         -6.23300         0.64625         0.13094
C         -4.98895         1.32639         0.11129
C         -3.75374         0.66201         0.47764
C         -2.57642         1.35291         0.67037
C         -1.35203         0.70297         1.31750
C         -0.04108         1.40492         1.02940
C          1.18994         0.73122         1.06358
C          2.49102         1.43308         0.90769
C          3.75057         0.74369         1.00739
C          5.02444         1.39246         0.65941
C          6.27874         0.69328         0.72286
C          7.57833         1.42107         0.53012
C          8.89056         0.72461         0.26916
C          9.91794         1.34407        -0.55242
C         11.11284         0.57764        -0.85296
C        -10.07517         2.90015         0.13281
C         -8.70757         3.55753         0.03656
C         -7.50000         2.78392        -0.10728
C         -6.25887         3.51410        -0.41614
C         -4.95161         2.72940        -0.32539
C         -3.63275         3.48467        -0.26523
C         -2.60598         2.83977         0.64993
C         -1.33433         3.60629         0.85246
C         -0.07910         2.81654         0.68514
C          1.22396         3.51945         0.41423
C          2.48259         2.79360         0.60244
C          3.67221         3.43045        -0.06449
C          4.97623         2.73918         0.22086
C          6.16451         3.38783        -0.34602
C          7.50379         2.82125        -0.03905
C          8.65795         3.46603        -0.73390
C          9.83241         2.66836        -0.95407
C         -8.63579         4.93556         0.08296
C         -7.40133         5.66509        -0.01952
C         -6.22839         4.98480        -0.28835
C         -4.94059         5.66184        -0.32445
C         -3.77138         4.98553        -0.12089
C         -2.51690         5.76511         0.06003
C         -1.27384         5.07480         0.50456
C          0.02282         5.74499         0.26862
C          1.25126         5.00427         0.57138
C          2.57799         5.71722         0.47714
C          3.78043         4.93871         0.09014
C          4.91212         5.58713        -0.31914
C          6.09671         4.83550        -0.79898
C          7.34077         5.59715        -1.26970
C          8.60433         4.77895        -1.12405
C         -7.43813         7.16215         0.23934
C         -6.20914         7.91042        -0.24882
C         -4.93177         7.13823        -0.51344
C         -3.65973         7.87271        -0.49155
C         -2.39733         7.07933        -0.68298
C         -1.13833         7.83178        -0.32887
C          0.05841         7.11502        -0.03312
C          1.33290         7.82589        -0.04607
C          2.52239         7.15387         0.14806
C          3.80471         7.86400         0.14460
C          5.06359         7.04173        -0.06324
C          6.30341         7.74543        -0.46884
C          7.41349         7.04035        -0.82414
C         -6.04382         9.34068         0.07845
C         -4.85313         9.97419        -0.07508
C         -3.62141         9.26019        -0.38334
C         -2.36361         9.94515        -0.44289
C         -1.13231         9.24958        -0.41044
C          0.13563         9.94124        -0.39836
C          1.33960         9.26631        -0.27630
C          2.61502         9.95209        -0.35548
C          3.81524         9.30063        -0.18432
C          5.11783         9.92120        -0.31514
C          6.27405         9.19954        -0.40385
C        -11.24489        -0.73090        -0.18419
C        -10.01700        -1.50907        -0.02684
C         -8.71450        -0.78484        -0.28860
C         -7.49732        -1.49407         0.26367
C         -6.30497        -0.76261         0.43238
C         -5.11062        -1.43405         1.08032
C         -3.79288        -0.85712         0.48757
C         -2.56921        -1.48884         1.12457
C         -1.27969        -0.76920         1.01864
C         -0.06865        -1.43179         0.98767
C          1.16149        -0.68646         1.05394
C          2.40511        -1.43275         1.13128
C          3.73296        -0.69354         1.26505
C          4.97556        -1.44720         0.96628
C          6.20708        -0.69497         1.37098
C          7.40911        -1.57528         1.24502
C          9.22457        -0.50238         0.79883
C         10.22032        -1.39139         0.24958
C         11.26588        -0.73265        -0.49910
C        -10.04197        -2.84079         0.20762
C         -8.81284        -3.68252         0.44230
C         -7.52613        -2.88603         0.42539
C         -6.30070        -3.61263         0.62538
C         -5.12447        -2.95412         0.92900
C         -3.87706        -3.78197         1.26258
C         -2.57015        -2.96555         1.29663
C         -1.25045        -3.68437         1.14994
C         -0.00839        -2.89846         0.95227
C          1.16936        -3.54462         0.63694
C          2.41788        -2.72930         0.35327
C          3.70948        -3.50442         0.57006
C          4.99554        -2.74820         0.59393
C          6.26532        -3.41241         0.06818
C          7.52180        -2.78111         0.63685
C          8.80586        -3.49724         0.46303
C         10.06144        -2.77389         0.30511
C         -8.72354        -4.87397        -0.53051
C         -7.52052        -5.73646        -0.21150
C         -6.35990        -5.09398         0.41689
C         -5.01997        -5.80602         0.18082
C         -3.80161        -4.95059         0.28625
C         -2.50449        -5.58450        -0.06966
C         -1.24748        -5.07214         0.54218
C         -0.00040        -5.63622         0.01331
C          1.19479        -4.93580         0.23518
C          2.41297        -5.51253        -0.23612
C          3.70675        -4.96408         0.24440
C          5.03864        -5.69742         0.16945
C          6.31090        -4.92200         0.26485
C          7.57905        -5.65437        -0.15390
C          8.81160        -4.85856         0.21845
C         -7.45008        -7.07089        -0.54095
C         -6.19550        -7.78415        -0.64337
C         -5.00748        -7.07558        -0.54793
C         -3.74331        -7.65177        -1.06875
C         -2.46844        -6.93880        -0.73423
C         -1.20232        -7.69099        -0.71395
C         -0.00667        -6.97548        -0.49969
C          1.22624        -7.58061        -0.88025
C          2.31877        -6.70092        -0.95403
C          4.20731        -7.80882        -0.91664
C          5.16618        -7.12279        -0.21897
C          6.36607        -7.84559         0.16057
C          7.54084        -7.12559         0.26437
C         -6.11781        -9.22190        -0.90220
C         -4.94866        -9.86310        -1.12519
C         -3.68807        -9.12191        -1.50878
C         -2.36159        -9.79744        -1.19679
C         -1.15856        -9.08955        -1.03278
C          0.14245        -9.73128        -1.08084
C          1.34811        -9.01695        -1.06041
C          2.63033        -9.72367        -0.93997
C          3.92042        -9.20992        -0.75712
C          5.06263        -9.93643        -0.21205
C          6.21189        -9.29936         0.18417
O          3.34239         3.20491        -1.49112
H          4.18688         3.32313        -1.99625
O         -5.73551        -5.89894         1.44971
O         -5.59723         2.97543        -1.62372
O          3.04612        -1.27766         2.42572
O          3.38704        -7.06340        -1.76459
O          5.75248        -5.47059         1.46123
O         -2.67320        -2.07928         2.47896
O          0.41125         3.05869        -0.71145
O         -7.55546         7.39448         1.64908
H         -8.28580         6.84200         1.99574
O         -5.17619        -1.09228         2.48785
H         -4.33830        -1.40874         2.90720
O          3.52850        -4.47433         1.63373
O         -1.60110         0.80899         2.76269
H         -1.81019         1.75874         2.94264
O         -8.94071        -4.27885         1.75921
H         -8.84156        -3.57081         2.42934
O         -4.02929        -4.33740         2.58131
H         -3.76127        -3.64944         3.22888
O          2.36032        -2.30761        -1.03873
H          2.23280        -3.09999        -1.60153
O         -8.58712        -4.33445        -1.85566
H         -8.44246        -5.07628        -2.47860
O          7.70722         2.63018         1.39599
O          1.97958         5.39901         1.78761
O         -2.10262         5.87521         1.45162
O         -9.39811         0.89726         1.46659
O          6.05303        -0.41777         2.79543
H          6.93756        -0.15007         3.12978
O         -3.70486        -9.13632        -2.97492
H         -3.23851        -8.31126        -3.25453
O         -8.54894        -0.72737        -1.73592
H         -8.54245        -1.65073        -2.06986
O         -3.01021         3.31573        -1.57505
H         -3.72356         3.43503        -2.24411
O         -5.84024         7.56437        -1.61078
O          4.65342         7.46075         1.28012
O          7.56723        -5.64672        -1.63363
H          8.37608        -6.10696        -1.94391
O        -10.78081         3.40800         1.27544
H        -10.45555         2.90957         2.05587
O         -3.06757        -6.83194        -2.08974
O         -2.31045         6.73365        -2.10601
H         -2.44173         7.55522        -2.62463
O          6.23476        -3.19229        -1.37255
H          6.82152        -3.86842        -1.78993
O          7.19673         5.73503        -2.72583
H          6.88327         4.86141        -3.05545
O         -3.71930        -1.27314        -0.90070
H         -4.38434        -0.76662        -1.41366
O          8.51903        -1.01488         1.89712
O         -3.14885        -4.58723        -0.95392
O          5.89805         3.74268        -1.77928
O         -1.19265        -4.87678         1.99409
O         -2.23942         3.36790         1.97465
H         12.14591        -1.30481        -0.82669
H         11.89666         1.07619        -1.44218
H         10.67775         3.12288        -1.49206
H          9.49713         5.20957        -1.60602
H          8.33710         7.58238        -1.08138
H          7.22860         9.72988        -0.53996
H          5.16224        11.01897        -0.37786
H          2.60930        11.02901        -0.58483
H          0.13595        11.03524        -0.51814
H         -2.35802        11.04499        -0.42290
H         -4.77678        11.04994         0.14337
H         -6.91754         9.89045         0.45813
H         -8.35036         7.58912        -0.27710
H         -9.56610         5.50544         0.22929
H        -10.66823         3.19348        -0.77506
H        -12.19545         1.17582        -0.26709
H        -12.18209        -1.28339        -0.35245
H        -11.01088        -3.34839         0.34252
H         -9.66494        -5.48945        -0.46929
H         -8.35536        -7.58567        -0.90129
H         -7.04325        -9.80534        -0.77850
H         -4.93988       -10.95807        -1.23464
H         -2.30226       -10.87181        -1.43344
H          0.16943       -10.82828        -1.17210
H          2.52391       -10.81306        -0.79482
H          4.99608       -11.03127        -0.11834
H          7.05518        -9.90412         0.55104
H          8.49502        -7.64408         0.44856
H          9.78398        -5.35163         0.04904
H         10.89856        -3.38014        -0.08170
