         651
 CSIRO Nanostructure Databank - Neutral Graphene Oxide Data Set
C          6.78279        32.11222        -1.77392
C          6.58394        33.46430        -1.77466
C          8.56040        27.60989        -1.18131
C          8.06258        28.74730        -0.59789
C          7.40283        29.87189        -1.23553
C          8.18367        31.64806         0.46603
C          7.44042        31.19912        -0.84106
C          8.30300        33.14509         0.58773
C          6.96289        34.36002        -0.70024
C          8.14029        36.18893         0.48846
C          7.43622        35.62512        -0.74851
C          8.36071        37.66004         0.31683
C         10.98753        23.29316        -1.01806
C         10.89095        24.68206        -0.63301
C          9.74337        25.46090        -0.92055
C         10.78187        27.46360         0.04979
C          9.66269        26.82863        -0.59771
C         10.79582        28.87872         0.36997
C          9.61449        29.61525         0.58939
C         10.74387        31.75017         0.55351
C          9.54646        31.00901         0.54094
C         10.73279        33.21613         0.68664
C          9.44231        33.93083         0.69521
C         10.63181        36.10485         0.96213
C          9.43953        35.39827         0.71662
C         10.71260        37.53587         1.02266
C          9.54243        38.30875         0.65290
C         10.75837        40.44160         1.01385
C          9.60318        39.72868         0.61346
C         10.74802        41.85349         1.01123
C         13.43295        18.98898        -1.15717
C         13.39189        20.35540        -0.83876
C         12.23175        21.14052        -1.11187
C         13.20712        23.11630         0.08151
C         12.11823        22.50285        -0.76985
C         13.32758        24.61727        -0.20912
C         12.01953        25.34836        -0.07981
C         13.25174        27.43368         0.50044
C         12.01045        26.73338         0.19064
C         13.26218        28.87739         0.58125
C         12.00631        29.61682         0.48585
C         13.20676        31.76798         1.00949
C         11.95784        31.02139         0.61777
C         13.21728        33.22368         0.51476
C         11.90553        33.90267         0.85726
C         13.14762        36.05544         1.53652
C         11.85898        35.32323         1.26474
C         13.15639        37.53374         1.51476
C         11.92194        38.25574         1.36158
C         13.13389        40.41552         1.84029
C         11.92420        39.68364         1.39337
C         13.16702        41.93212         1.85351
C         11.86384        42.66726         1.48490
C         13.16659        44.77740         1.15179
C         11.97385        44.08469         1.13583
C         13.12047        46.24535         1.11497
C         15.86527        14.55727        -0.93450
C         15.83183        16.02574        -0.64440
C         14.60605        16.80119        -1.08788
C         15.82588        18.85276        -0.49595
C         14.59566        18.17791        -0.93960
C         15.74212        20.24004        -0.08670
C         14.57574        20.97790        -0.24171
C         15.70123        23.09735         0.35633
C         14.55478        22.41209         0.03236
C         15.80322        24.59917         0.16088
C         14.48061        25.24806         0.59227
C         15.72240        27.40775         0.80833
C         14.49807        26.75771         0.54732
C         15.69484        28.84599         1.24093
C         14.45317        29.55317         0.77406
C         15.74925        31.75626         0.69871
C         14.46275        31.01894         0.62019
C         15.66844        33.21135         0.99346
C         14.48427        33.89070         1.02912
C         15.74420        36.10429         1.36399
C         14.45791        35.30959         1.47271
C         15.59757        37.55739         1.15542
C         14.40147        38.21626         1.47720
C         15.75848        40.43881         1.93116
C         14.43724        39.65544         1.84904
C         15.64254        41.86017         1.37441
C         14.41436        42.66757         1.58577
C         15.72544        44.69623         1.09712
C         14.43874        44.03396         1.25610
C         15.90542        45.91179         0.43736
C         14.05325        46.99186         0.45047
C         15.62892        48.92193         0.17345
C         14.37105        48.39939         0.43124
C         15.51824        50.33512        -0.41715
C         18.47167        10.33033        -1.05282
C         18.29345        11.71119        -1.33391
C         17.11664        12.44610        -1.05102
C         18.27909        14.58682        -1.53421
C         17.06721        13.87152        -1.14897
C         18.37206        16.08515        -1.42707
C         17.07944        16.78658        -1.06438
C         18.29522        18.76065        -0.06937
C         17.03196        18.18170        -0.53916
C         18.28921        20.19314         0.39649
C         16.94830        20.88143         0.48590
C         18.25552        23.12537         0.71279
C         16.94091        22.36767         0.67337
C         18.22698        24.60883         0.69377
C         17.01522        25.29273         0.73710
C         18.20996        27.43207         1.03568
C         16.97273        26.71139         0.87590
C         18.24182        28.86489         1.14526
C         16.99022        29.61356         1.05524
C         18.26015        31.73559         1.07744
C         16.99190        30.97988         0.96659
C         18.19394        33.13407         1.56998
C         16.91675        33.89435         1.42304
C         18.24181        35.99420         1.70956
C         17.03970        35.35491         1.01744
C         18.56805        37.27314         1.36333
C         16.69942        38.39963         0.66550
C         18.27172        40.37262         1.26689
C         16.89722        39.77799         1.17623
C         18.26786        41.82449         1.28677
C         16.97477        42.54426         1.22557
C         18.26994        44.75795         1.50664
C         16.97360        44.00583         1.50224
C         18.23894        46.28144         1.33626
C         17.00097        46.81913         0.60372
C         18.18767        48.95837         0.49034
C         16.91055        48.21018         0.38370
C         18.30798        50.29068         0.77139
C         16.56719        51.33165        -0.02180
C         18.19942        53.17568        -0.49475
C         16.99368        52.38470        -0.75753
C         18.26775        54.46092        -0.95763
C         21.05415         6.16641        -0.99783
C         21.02997         7.57123        -1.35930
C         19.85151         8.28570        -1.02772
C         20.80552        10.39231        -1.86904
C         19.70021         9.67043        -1.29461
C         20.56867        11.69665        -2.26129
C         19.37798        12.40963        -1.96174
C         21.25396        14.95147        -1.84773
C         19.28795        13.82625        -2.09498
C         20.95112        16.21647        -1.25088
C         19.68035        16.78437        -1.14297
C         20.78241        18.96091        -0.29655
C         19.59227        18.09037        -0.41214
C         20.75033        20.31298        -0.04926
C         19.50812        21.02760         0.21616
C         20.64157        23.22673        -0.13482
C         19.48349        22.40598         0.31231
C         20.61964        24.67618         0.16929
C         19.45348        25.31934         0.69144
C         20.68468        27.45375         0.85355
C         19.44509        26.73720         0.88111
C         20.72227        28.84230         1.13293
C         19.47790        29.52915         1.24491
C         20.76659        31.67156         1.82812
C         19.54063        31.00166         1.26194
C         20.79269        33.17229         1.98891
C         19.46828        33.87200         1.82096
C         21.17146        36.23579         2.08441
C         19.25647        35.13185         2.30553
C         20.97064        37.56951         1.66632
C         19.61188        38.22700         1.92638
C         20.76169        40.40881         1.29106
C         19.45358        39.65270         1.36917
C         20.61683        41.79233         0.63407
C         19.44802        42.56705         1.17142
C         20.72522        44.67221         0.97815
C         19.50180        43.98423         1.20317
C         20.70440        46.12331         0.85186
C         19.53176        46.81994         0.77402
C         20.74688        48.99828         0.45981
C         19.47770        48.21304         0.18464
C         20.79164        50.36204         0.44763
C         19.52490        51.12444         0.59278
C         20.71244        53.17287        -0.45358
C         19.44830        52.55249         0.05518
C         20.74719        54.50214        -0.81011
C         19.49213        55.24729        -0.94016
C         20.74984        57.41529        -1.06564
C         19.49249        56.59341        -1.16519
C         20.71217        58.67720        -1.93820
C         23.56341         3.40784        -1.54173
C         22.31671         3.94917        -1.16594
C         23.59034         6.29252        -2.26341
C         21.89678         5.23497        -1.59563
C         23.46143         7.65917        -1.95263
C         22.17461         8.28027        -1.83906
C         23.35985        10.49340        -1.48152
C         22.16230         9.76179        -2.15479
C         23.39066        11.90112        -1.29489
C         22.50358        12.82510        -1.89811
C         23.40417        14.74729        -0.61745
C         22.38790        14.18484        -1.49719
C         23.33939        16.11260        -0.29297
C         22.18263        16.90697        -0.76542
C         23.09276        18.86412         0.67177
C         22.10673        18.31017        -0.32466
C         23.18551        20.34616         0.40805
C         22.02873        21.02484         0.04308
C         23.31373        23.15179        -0.10845
C         22.03124        22.46281        -0.28249
C         23.51399        24.50652        -0.37430
C         21.67255        25.53086        -0.17577
C         23.15722        27.45638         0.46046
C         21.87219        26.81208         0.40306
C         23.18186        28.85080         0.81651
C         21.97904        29.52292         1.13436
C         23.32918        31.71205         1.39905
C         22.04942        30.91692         1.61512
C         23.24873        33.19082         1.36431
C         22.09350        33.89648         1.69023
C         23.12740        35.98726         0.68162
C         22.10976        35.35280         1.53703
C         23.12086        37.44987         0.53430
C         22.00378        38.18049         0.91591
C         23.07058        40.35612         0.12941
C         21.84276        39.60669         0.55827
C         23.05784        41.83190         0.26563
C         21.92393        42.53827         0.58269
C         23.19691        44.67883         0.55220
C         21.93463        43.97495         0.72242
C         23.26778        46.11773         0.69336
C         22.00977        46.86738         1.06593
C         23.26690        49.04568         0.78356
C         22.04020        48.22552         0.34252
C         23.25509        50.40201         0.13377
C         22.03611        51.04772         0.09801
C         23.24736        53.03598        -0.94181
C         21.93235        52.35522        -0.56100
C         23.23445        54.49145        -1.06857
C         22.00530        55.20058        -1.06709
C         23.22660        57.29418        -1.43980
C         22.00088        56.59841        -1.28417
C         23.28910        58.65985        -1.95870
C         22.05976        59.34319        -2.15320
C         23.22266        61.23192        -3.15008
C         22.03757        60.62386        -2.71333
C         24.69222         4.10053        -1.98597
C         25.95825         6.27211        -1.85830
C         24.77967         5.53481        -2.06963
C         25.91228         7.68362        -1.65307
C         24.65400         8.37671        -1.64073
C         25.74412        10.35624        -0.70460
C         24.56953         9.74874        -1.22299
C         25.64129        11.65765        -0.04267
C         24.40810        12.48056        -0.38394
C         25.63117        14.52815         0.40991
C         24.50647        13.94474        -0.21266
C         25.53103        15.92779         0.84074
C         24.39594        16.74730         0.41035
C         25.61684        18.82854         0.97933
C         24.41413        18.13511         0.67210
C         25.63887        20.27781         0.86795
C         24.46931        20.96369         0.50373
C         25.79762        23.12739         0.45218
C         24.53042        22.37352         0.14154
C         25.65839        24.56390         0.78532
C         24.51523        25.30767         0.24266
C         25.62098        27.44407         0.69062
C         24.40234        26.71891         0.43649
C         25.63656        28.83228         0.56713
C         24.42899        29.59122         0.70876
C         25.67165        31.74686         0.48979
C         24.48263        31.00295         0.80328
C         25.73276        33.13048         0.61169
C         24.57008        33.92966         1.18659
C         25.65650        36.01059         0.26364
C         24.39943        35.22413         0.40598
C         25.59878        37.38625         0.28076
C         24.32685        38.12882        -0.08982
C         25.49949        40.30682         0.51631
C         24.35277        39.62182         0.22232
C         25.49115        41.81666         0.70864
C         24.35631        42.49714        -0.07729
C         25.60379        44.69425        -0.01094
C         24.34085        43.98171         0.18610
C         25.70100        46.12594         0.27498
C         24.46843        46.82324         0.56696
C         25.73345        48.93997         0.34031
C         24.53753        48.26980         0.55700
C         25.74656        50.33069        -0.02595
C         24.51137        51.04098        -0.19165
C         25.75167        53.07702        -0.83366
C         24.52293        52.38380        -0.61134
C         25.75097        54.47619        -1.14348
C         24.47710        55.17590        -1.08159
C         26.15501        57.42331        -1.98420
C         24.39560        56.58341        -1.10135
C         25.73887        58.53060        -2.73079
C         24.49463        59.23105        -2.51480
C         24.41199        60.52443        -3.09960
C         27.08934         8.40125        -1.35248
C         28.22177        10.41863        -0.52992
C         27.03387         9.72889        -0.85260
C         28.23593        11.67875         0.20262
C         26.86792        12.36487         0.46793
C         28.07120        14.52796         0.89519
C         26.85218        13.82697         0.63792
C         28.08942        15.93271         1.11902
C         26.83031        16.66908         1.26751
C         28.07833        18.81645         1.33912
C         26.84046        18.13409         1.17150
C         28.09613        20.26555         1.33241
C         26.89374        20.98249         1.05208
C         28.16862        23.11609         1.09940
C         26.94974        22.39566         0.99148
C         28.19094        24.54294         0.99016
C         26.94607        25.28800         1.15269
C         28.21242        27.44555         0.70139
C         26.90762        26.76917         0.99857
C         28.18143        28.82572         0.17578
C         26.88206        29.50571         0.14113
C         28.17920        31.69016        -0.06563
C         26.86973        31.02455        -0.00205
C         28.19810        33.15141        -0.00103
C         26.94283        33.86587         0.28751
C         28.16260        36.04387         0.11724
C         26.91205        35.27003         0.27332
C         28.02177        37.52624         0.06086
C         26.82654        38.12240         0.76869
C         27.93519        40.35016         0.64938
C         26.76360        39.62328         0.61042
C         27.98477        41.78424         0.66914
C         26.83077        42.47240         0.45204
C         28.15457        44.62394         0.35552
C         26.90397        43.90045         0.12059
C         28.16614        46.02343         0.26125
C         26.93280        46.75805         0.28469
C         28.26844        48.85131        -0.05090
C         27.04565        48.22570         0.59605
C         28.20340        50.18815        -0.47095
C         26.96903        50.95223        -0.41468
C         28.16881        52.92623        -1.31362
C         26.96317        52.31390        -0.82297
C         28.11774        54.26011        -1.76650
C         26.96183        55.07369        -1.66634
C         27.03722        56.37236        -2.28504
C         29.41159        12.53925         0.24080
C         30.56001        14.61418         0.81546
C         29.35198        13.85260         0.69328
C         30.56638        15.97530         1.10877
C         29.29739        16.67393         1.23999
C         30.54265        18.73595         1.98205
C         29.28196        18.07338         1.45966
C         30.55348        20.26199         1.83750
C         29.31675        20.97827         1.47095
C         30.63745        23.05544         1.00218
C         29.38718        22.37318         1.24579
C         30.51626        24.34579         0.19267
C         29.40610        25.25145         0.69825
C         30.69708        27.40756         0.39566
C         29.42420        26.61967         0.51476
C         30.58467        28.65092        -0.51522
C         29.33650        29.48587        -0.19488
C         30.59102        31.60734        -0.66136
C         29.31935        30.92348        -0.31449
C         30.69993        33.06050        -0.23622
C         29.38214        33.82302        -0.26266
C         30.70448        35.92426        -0.84537
C         29.46391        35.30197        -0.13278
C         30.89833        37.37470        -0.56257
C         29.00360        38.40044        -0.27635
C         30.42165        40.20177         0.64255
C         29.18486        39.68216         0.37372
C         30.59928        41.65167         1.05516
C         29.27152        42.48190         1.02426
C         30.61236        44.53140         0.43628
C         29.35759        43.87255         0.49543
C         30.58437        45.92595         0.51048
C         29.42578        46.71966         0.30403
C         30.67009        48.68789        -0.72570
C         29.49015        48.10259        -0.08880
C         30.56360        50.01994        -1.16685
C         29.39138        50.80407        -1.01286
C         29.35368        52.15463        -1.41206
C         31.78592        16.71912         1.16917
C         33.03125        18.80505         1.42158
C         31.81773        18.08318         1.46371
C         33.10841        20.21580         1.48957
C         31.85824        21.00160         1.64866
C         33.09915        23.03694         0.81343
C         31.83780        22.37813         1.11187
C         33.09901        24.36034         0.42386
C         31.87036        25.06278        -0.13441
C         33.09505        27.25387        -0.10789
C         31.92311        26.57469         0.08073
C         33.09054        28.70351        -0.35105
C         31.91437        29.39898        -0.48759
C         33.15397        31.62345        -0.56907
C         31.89486        30.85123        -0.78282
C         33.17234        32.98866        -0.50668
C         31.93365        33.73374        -0.93509
C         33.02249        35.76628         0.10155
C         31.96315        35.17475        -0.52115
C         32.85815        37.07680         0.85648
C         31.73344        37.93694         0.32497
C         32.94568        40.09614         0.52694
C         31.65829        39.36001         0.88395
C         32.96982        41.40049         0.06807
C         31.72129        42.22697         0.15573
C         33.07456        44.34968        -0.52949
C         31.78782        43.73265        -0.03519
C         33.13699        45.73105        -0.98986
C         32.31244        46.77280        -0.52825
C         31.85228        47.95460        -1.13411
C         34.30659        20.91406         1.33951
C         35.57168        22.99298         1.02986
C         34.35454        22.32528         1.08254
C         35.68059        24.33989         0.47522
C         34.36287        25.05309         0.12922
C         35.68103        27.10706        -0.45230
C         34.40951        26.57645         0.22896
C         35.70110        28.63825        -0.52663
C         34.38948        29.37607        -0.66876
C         35.67614        31.61908        -0.29984
C         34.43122        30.88882        -0.63125
C         35.63108        33.03040        -0.10200
C         34.37997        33.72352        -0.18033
C         35.51534        35.83217         0.46272
C         34.31807        35.08804         0.15081
C         35.36901        37.18420         0.86529
C         34.13451        37.89549         0.86165
C         35.93595        40.32774        -0.18119
C         34.11815        39.29230         0.78720
C         35.41859        41.32464        -0.94717
C         34.04569        41.98311        -0.85479
C         34.12386        43.50065        -0.81020
C         36.84841        25.20731         0.70500
C         38.03135        27.33113         0.61210
C         36.88764        26.52256         0.29854
C         38.08753        28.70870         0.43450
C         36.92826        29.41947        -0.16049
C         38.06729        31.58419         0.21825
C         36.87537        30.90008        -0.04043
C         38.12926        33.05008        -0.13520
C         36.83089        33.79006         0.11641
C         38.09957        35.90499         0.23718
C         36.80885        35.18042         0.31599
C         38.27230        37.24675        -0.08765
C         37.27615        38.26238         0.13120
C         37.07511        39.47071        -0.49867
C         39.22810        29.48456         0.77325
C         40.45576        31.63251         0.87137
C         39.25187        30.87618         0.60188
C         40.49152        32.99471         0.78447
C         39.33108        33.76179         0.41246
C         39.31208        35.12902         0.41278
O         17.57348        22.70304         1.95065
O         17.88676        37.76334         0.23891
O         27.66118        27.42685         2.09045
O         22.09385        39.83721        -0.85654
O         26.62246        30.16699        -1.15857
O         16.41950        39.50323        -0.20607
O         25.52695        22.72343        -0.91884
O         29.16827        35.74020         1.22382
O         17.51332        16.73721        -2.45187
O         31.09505        31.22757        -1.97010
O         22.57075        25.15548        -1.17350
O         29.91433        23.91051        -1.02108
O         15.14280        31.42528        -0.63317
O         29.95669        38.13378        -1.26699
O         17.18812        51.02435         1.20376
O         17.30970        33.40092         2.73475
O         17.61133        44.34644         2.77647
O         23.40604        35.23403        -0.62331
O         19.55454        52.28284         1.49580
O         36.65691        29.02942        -1.56614
O         15.25333        35.63068         2.65874
O         27.53006        11.62638         1.51348
O         35.13851        24.42519        -0.89960
O         16.20859        42.11454         0.04494
O         26.00992        24.81012         2.17858
O         12.29975        42.44510         2.89561
O         29.07452        43.06607         2.32720
O         22.49249         5.65584        -2.82184
O         14.88568        46.27902        -0.44444
O         25.89440        16.12678         2.24254
O         26.33677        44.23693        -1.19756
O         31.23855        20.88674         2.98711
O         25.52127        57.30556        -0.72326
O         22.45368        52.30964        -1.94556
O         21.19511        22.83183        -1.41698
O         21.63054        12.38510        -2.89969
O         17.55163        20.24440         1.65756
O         34.40171        30.12907        -1.91705
O         24.51297        11.75666         0.88858
O         19.18111        31.58588        -0.05848
O         13.68204        39.85234         3.09291
O         20.71439        32.26742         3.15133
O          8.41329        28.91748         0.75691
O         18.95982        17.87841         0.91857
O          7.02057        33.71158         0.57230
O         35.28988        39.99872         1.03149
O         20.26412        35.76430         3.04602
O         20.23017        41.48857        -0.77838
O         22.98819        31.11421         2.71164
O         12.32492        35.52568         2.64990
O         31.26161        42.79743        -1.10400
O         20.34986        14.45552        -2.77382
O         31.78761        46.56934         0.76797
O         36.46812        37.93190         1.24551
O         22.62024        18.02301        -1.66070
O         13.26050        33.26300        -0.93262
H         14.03410        32.71018        -1.21655
O         24.20181        38.02497        -1.53873
H         23.37341        38.50172        -1.78124
O         12.73470        22.95265         1.45820
H         12.71395        21.99220         1.65551
O         15.50944        50.19511        -1.84918
H         16.26433        49.62846        -2.11161
O         38.31441        33.07665        -1.59939
H         37.60646        32.52263        -1.99494
O         22.21706        47.90404        -1.06902
H         22.38690        48.74442        -1.54820
O         33.47151        41.69832        -2.18119
H         32.58017        42.13201        -2.20273
O         30.40821        35.80113        -2.26317
H         30.00410        36.65651        -2.54213
O         13.58821        24.70240        -1.64775
H         13.48389        25.63908        -1.91920
O         32.59281        36.67006         2.22370
H         32.24194        37.47044         2.68810
O         13.20801        31.84657         2.45733
H         13.22445        30.93733         2.82309
O         14.32746        24.98273         2.00888
H         13.77244        24.17338         2.13519
O         31.02893        32.99242         1.18429
H         30.92479        33.88770         1.57518
O          7.29199        36.07268         1.65947
H          6.99784        35.13444         1.72153
O         19.47371        48.00354        -1.27151
H         20.36838        47.65454        -1.51013
O         27.25835        48.32854         2.05142
H         27.63982        49.21240         2.23676
O         16.08764        24.75958        -1.26028
H         15.29960        24.44620        -1.77153
O         22.50533        18.65330         1.98747
H         23.17168        18.88855         2.66629
O         17.21881        35.30180        -0.41086
H         17.49496        36.19678        -0.71903
O         32.06991        24.93570        -1.56194
H         31.24497        24.46958        -1.89143
O         20.17698        58.35646        -3.23449
H         20.84511        57.83483        -3.72465
O         20.83255        57.90187         0.31199
H         20.83089        57.12360         0.90817
O         20.01490        42.78252        -1.42885
H         19.35524        42.53902        -2.12318
O         25.20737        42.08929         2.10680
H         25.96051        41.76450         2.64537
O         23.18577        49.30918         2.22381
H         24.04521        49.68774         2.50545
O         31.65484        39.16646         2.33353
H         31.50692        40.06936         2.73182
O         35.68780        26.65516        -1.80970
H         36.26806        27.26450        -2.31866
O         34.58893        26.90018         1.64752
H         33.71060        26.88537         2.08583
O         21.24612        40.58828         2.64366
H         20.72431        40.00995         3.24651
O         19.42052        38.36049         3.35749
H         19.61110        37.47936         3.76135
O          7.38296        31.20635         1.58412
H          6.57631        31.76433         1.60004
O         18.17773        46.87141         2.66629
H         17.91665        46.15158         3.28842
O         16.13952        40.54868         3.31016
H         15.31449        40.48540         3.84887
O         15.85286        16.10517         0.82928
H         15.00431        15.74551         1.16277
O         22.00679        47.00428         2.50683
H         22.56161        47.78211         2.76029
O         24.61451        42.23487        -1.47763
H         23.93693        42.69895        -2.01138
O         30.95674        27.91577         1.75405
H         30.09583        28.02035         2.21522
O         22.40550         9.84903        -3.59332
H         22.27416        10.79150        -3.84991
O         30.40511        28.20248        -1.87491
H         30.52307        28.97984        -2.46423
O         31.12494        41.72788         2.39922
H         30.46147        42.31253         2.88304
O         30.52392        18.44758         3.41083
H         30.98442        19.20185         3.85019
O         24.98737        34.35816         2.52079
H         24.96466        33.57620         3.11269
O         26.90484        37.88367         2.20607
H         27.23569        36.96959         2.34341
O         15.55592        28.78748         2.72408
H         15.08534        27.95473         2.94815
O         31.87202        33.60709        -2.36113
H         31.25872        34.29082        -2.71584
H          6.42022        31.59970        -2.68220
H          6.14803        33.91452        -2.67936
H          8.21749        27.31268        -2.18493
H          6.91118        29.64995        -2.19891
H          7.47181        36.17455        -1.69950
H          7.48095        38.26312         0.04583
H         10.12939        22.84547        -1.54362
H          8.89829        24.98868        -1.44351
H          8.70231        40.28803         0.32118
H          9.87676        42.37062         0.58246
H         12.52911        18.51129        -1.56517
H         11.39325        20.65461        -1.63535
H         11.04516        44.62256         0.89159
H         12.34105        46.74192         1.71164
H         14.96791        13.97202        -0.67649
H         13.69462        16.26633        -1.39562
H         13.52298        49.10471         0.46904
H         14.51131        50.74651        -0.13775
H         17.64292         9.76040        -0.60758
H         16.22715        11.91579        -0.68070
H         16.41891        52.64519        -1.65953
H         17.36255        54.93418        -1.36709
H         20.38198         5.84015        -0.19011
H         19.00327         7.73444        -0.59647
H         18.53803        57.12439        -1.29962
H         20.00177        59.40370        -1.47100
H         23.71929         2.34271        -1.30582
H         21.68022         3.37479        -0.47744
H         23.19715        62.24143        -3.58277
H         21.07573        61.14100        -2.83729
H         25.63346         3.53471        -2.05889
H         26.92156         5.75129        -1.75439
H         26.35381        58.86071        -3.58216
H         25.32784        60.96966        -3.51458
H         28.06145         7.88937        -1.40019
H         29.18424         9.98684        -0.84136
H         29.02896        54.70028        -2.19920
H         27.80195        56.51677        -3.06328
H         30.37368        12.12933        -0.10102
H         31.51786        14.09313         0.66711
H         31.43373        50.48397        -1.65509
H         30.26157        52.61921        -1.82490
H         32.72630        16.20084         0.92306
H         33.95899        18.24691         1.21563
H         33.81686        45.93261        -1.83296
H         32.38366        48.33865        -2.01898
H         35.25198        20.35011         1.31112
H         36.48329        22.48644         1.38303
H         35.94721        41.56995        -1.88128
H         35.03116        43.94170        -1.25299
H         37.69713        24.78905         1.26991
H         38.89872        26.82801         1.06925
H         39.27828        37.56623        -0.40539
H         37.69592        39.72857        -1.36822
H         40.12764        28.97294         1.14756
H         41.35577        31.07846         1.17623
H         41.41277        33.53874         1.04191
H         40.23471        35.68388         0.64541
