         334
 CSIRO Nanostructure Databank - Neutral Graphene Oxide Data Set
C         30.33943        56.89530         0.61930
C         30.32675        58.29574         0.84442
C         29.11689        59.02779         0.83221
C         30.30957        61.11541         1.17147
C         29.11691        60.41471         0.99836
C         32.79320        52.77974        -0.47502
C         32.79955        54.10603         0.03394
C         31.57450        54.79553         0.27957
C         32.79092        56.84313         0.99873
C         31.53544        56.15280         0.62393
C         32.80103        58.32041         1.04407
C         31.56639        59.00975         1.03010
C         32.78274        61.11271         1.39075
C         31.54918        60.43030         1.18519
C         35.23596        48.66132        -0.87971
C         35.19671        49.97988        -1.23222
C         33.91031        50.74847        -1.47002
C         35.18772        52.87765        -0.85325
C         33.96254        52.16406        -0.91258
C         35.23627        54.14962        -0.23410
C         34.05530        54.76150         0.20994
C         35.33736        56.92344         0.64745
C         34.10403        56.10884         0.82126
C         35.29135        58.36017         0.93940
C         34.02120        59.02510         1.14827
C         35.25690        61.19797         1.70318
C         33.99055        60.43819         1.37487
C         37.72909        44.35505        -0.64048
C         37.73406        45.78271        -0.76450
C         36.50860        46.54245        -0.65825
C         37.72083        48.65884        -0.97561
C         36.48295        47.92383        -0.81730
C         37.71914        49.98349        -1.36271
C         36.44213        50.68340        -1.55961
C         37.68789        52.92024        -1.10830
C         36.43010        52.26362        -1.37186
C         37.64908        54.41132        -0.92116
C         36.56897        54.81302         0.08923
C         37.66867        57.18025        -0.19001
C         36.48006        56.31710         0.20853
C         37.78389        58.34387         0.79471
C         36.48041        59.09000         0.97600
C         37.73903        61.15652         1.47284
C         36.53560        60.46932         1.35387
C         40.21512        40.18487         0.27139
C         40.17419        41.57230         0.03366
C         38.95260        42.24001        -0.20559
C         40.18926        44.23950        -0.95291
C         38.91087        43.60540        -0.57551
C         40.18990        45.76730        -1.14176
C         38.94439        46.47479        -0.89996
C         40.26366        48.61296        -1.12522
C         39.00585        47.94728        -0.61264
C         40.26421        50.01144        -1.26425
C         38.98417        50.72636        -1.50828
C         40.17787        52.89362        -0.82526
C         38.94648        52.24337        -1.36522
C         40.19967        54.36265        -0.69505
C         38.98093        55.06063        -0.60835
C         40.21758        57.09114        -0.10788
C         38.98356        56.42216        -0.27297
C         40.23996        58.55555         0.15966
C         38.96255        59.24213         0.49096
C         40.21531        61.25102         1.24301
C         39.00527        60.57811         1.14189
C         42.59630        36.11535         1.73536
C         42.54667        37.60582         1.85062
C         41.39920        38.19741         1.07946
C         42.56435        40.39796         1.16501
C         41.38857        39.53235         0.74552
C         42.64191        41.70183         0.40177
C         41.43263        42.31785        -0.00913
C         42.68349        44.33677        -0.67657
C         41.46158        43.61777        -0.55308
C         42.66601        45.74226        -1.02376
C         41.48362        46.46779        -1.06346
C         42.72556        48.61263        -1.27874
C         41.48884        47.90599        -1.16239
C         42.71840        50.03545        -1.24590
C         41.48460        50.71994        -1.24459
C         42.72983        52.91654        -0.87291
C         41.47287        52.15065        -0.87630
C         42.70338        54.29096        -0.66750
C         41.44307        55.02100        -0.53300
C         42.72140        57.19675        -0.41669
C         41.43576        56.41418        -0.28044
C         42.75320        58.52781         0.29926
C         41.47989        59.11362         0.82419
C         42.67184        61.31072         0.92915
C         41.47499        60.62325         0.94738
C         45.03950        33.29255         1.72853
C         43.82830        33.97655         1.71119
C         45.05933        36.10782         1.63599
C         43.79936        35.40573         1.68587
C         45.06874        37.53113         1.51755
C         43.85275        38.26749         1.48569
C         45.09386        40.30460         1.01696
C         43.86521        39.62738         1.16141
C         45.18453        41.67605         0.39440
C         43.85550        42.36751         0.20884
C         45.17517        44.39028        -0.34042
C         43.90100        43.69411        -0.30022
C         45.24831        45.70766        -0.98836
C         43.93498        46.43867        -1.30577
C         45.19286        48.60071        -1.35666
C         43.97031        47.90905        -1.32811
C         45.19177        50.05196        -1.30068
C         43.95979        50.76578        -1.18749
C         45.19734        52.86693        -0.87158
C         43.96545        52.17874        -1.00880
C         45.21192        54.26330        -0.54148
C         43.95414        55.00955        -0.45817
C         45.15517        57.02951         0.41683
C         43.94981        56.35748        -0.18548
C         45.19792        58.53555         0.21862
C         43.93344        59.21986         0.42364
C         45.13533        61.34957         0.63462
C         43.93640        60.65433         0.69573
C         46.25982        33.97495         1.70126
C         47.52576        36.10588         1.56036
C         46.29320        35.39418         1.64194
C         47.56376        37.50375         1.45817
C         46.30797        38.22546         1.43308
C         47.56402        40.37467         1.38930
C         46.29565        39.62449         1.26427
C         47.55060        41.87557         1.26666
C         46.21250        42.60328         1.07182
C         47.58324        44.55326         0.15383
C         46.32812        43.87271         0.24820
C         47.63116        45.89532        -0.34232
C         46.44956        46.53009        -0.80455
C         47.68776        48.61466        -1.13969
C         46.44760        47.89685        -1.16042
C         47.67202        50.03720        -1.66186
C         46.40965        50.76373        -1.28611
C         47.67019        52.85577        -0.87950
C         46.43008        52.15588        -1.01953
C         47.68023        54.24875        -0.61002
C         46.43026        54.92096        -0.38526
C         47.70586        57.10786        -0.12727
C         46.45935        56.32197         0.08511
C         47.67555        58.61475        -0.21824
C         46.37114        59.24222         0.20452
C         47.60613        61.36347         0.40211
C         46.38731        60.68479         0.39019
C         48.78942        38.22228         1.31296
C         50.02111        40.36549         1.13311
C         48.83415        39.62758         1.24223
C         50.03797        41.78775         0.97025
C         48.81507        42.53805         0.90492
C         50.05996        44.57971         0.31187
C         48.81194        43.89226         0.49774
C         50.08054        45.91350        -0.10672
C         48.87035        46.60786        -0.38700
C         50.14386        48.79319        -0.55519
C         48.87458        47.98658        -0.77019
C         50.19970        50.03059        -1.51100
C         48.92836        50.79635        -1.35105
C         50.15134        52.85565        -0.79085
C         48.91832        52.14378        -1.00192
C         50.14739        54.26719        -0.63790
C         48.91500        54.95959        -0.57822
C         50.18427        57.14452        -0.32209
C         48.91046        56.45592        -0.76917
C         50.16872        58.50407         0.09233
C         48.87690        59.17519         0.54851
C         50.07026        61.34318         0.56922
C         48.88421        60.68763         0.43803
C         51.26182        42.46754         0.80687
C         52.52569        44.55119         0.52880
C         51.31598        43.86666         0.55184
C         52.54365        46.04886         0.39160
C         51.40902        46.50054        -0.52470
C         52.62932        48.61537        -0.85546
C         51.42498        48.00961        -0.66760
C         52.74228        50.06544        -1.31759
C         51.43892        50.79986        -1.17176
C         52.63007        52.86001        -0.57336
C         51.39863        52.13710        -0.81419
C         52.61270        54.26592        -0.51125
C         51.40229        54.98919        -0.55835
C         52.63591        57.13197        -0.19555
C         51.39849        56.43100        -0.39611
C         52.61621        58.53261         0.08700
C         51.37125        59.19314         0.28199
C         52.56765        61.42257         0.40440
C         51.34952        60.59768         0.85965
C         53.85217        46.64483        -0.07583
C         55.17664        48.58915        -0.95845
C         53.87935        47.86365        -0.66774
C         55.11825        49.95870        -0.25316
C         53.89808        50.77186        -0.65385
C         55.03669        52.74545         0.37689
C         53.84929        52.11352        -0.37866
C         54.99761        54.32331         0.40463
C         53.95323        54.95798        -0.54414
C         55.07713        57.12111        -0.02306
C         53.87680        56.44096        -0.24219
C         55.07987        58.53378         0.20615
C         53.85896        59.23806         0.26524
C         55.04641        61.30985         0.77502
C         53.86373        60.65516         0.52049
C         56.33853        50.80660        -0.49877
C         57.55240        52.88529        -0.13474
C         56.34123        52.13863        -0.16984
C         57.57853        54.27401         0.03089
C         56.32810        55.01496         0.09389
C         57.60487        57.15051        -0.25052
C         56.33087        56.37838        -0.03099
C         57.55676        58.54476         0.33495
C         56.32607        59.22561         0.43090
C         57.51233        61.29212         1.01078
C         56.30526        60.62015         0.75892
C         58.80716        54.97724         0.11299
C         60.02362        57.08945         0.40002
C         58.84718        56.38281         0.14526
C         60.02138        58.50597         0.59592
C         58.76379        59.21669         0.61662
C         59.98075        61.27372         1.22168
C         58.74458        60.60853         0.96190
C         61.20566        59.20683         0.86905
C         61.17838        60.58276         1.16515
O         36.32211        51.59040        -2.68508
O         47.59482        41.24326         2.59896
O         39.09340        51.60220        -2.69206
O         44.71423        45.77670        -2.35329
O         47.43686        56.54897         1.18195
O         39.53260        59.31492        -0.86169
O         33.48437        56.21318         2.14270
O         40.15985        44.82871        -2.28164
O         40.69077        52.26898         0.40449
O         54.93832        52.26771         1.69252
O         57.71781        57.35030        -1.70604
H         58.55740        57.83054        -1.86894
O         33.67787        50.80663        -2.88829
H         34.49179        51.19006        -3.29222
O         48.81009        56.64419        -2.21493
H         49.64595        56.32890        -2.61717
O         41.36439        58.60264         2.20705
H         42.24712        58.67602         2.62997
O         38.08081        57.73063         2.08381
H         38.36664        58.43341         2.70464
O         52.25675        46.61267         1.71300
H         53.07582        46.56276         2.24946
O         55.40919        48.74254        -2.35930
H         54.61382        49.17571        -2.75857
O         54.63865        54.70878         1.73728
H         54.68170        53.85316         2.25785
O         55.03064        49.67399         1.16419
H         54.98738        50.57378         1.61738
O         44.95391        56.88583         1.86188
H         45.85742        56.90042         2.26015
O         37.36282        57.70324        -1.50085
H         37.26812        56.92460        -2.10051
O         37.20242        54.96946        -2.20952
H         37.63029        54.45604        -2.92851
O         48.72379        58.86003         1.95080
H         49.47159        59.28966         2.42480
O         45.72240        43.00315         2.36233
H         46.11899        42.38643         3.02237
O         42.30196        37.95550         3.28868
H         43.03810        37.56681         3.80907
O         50.30923        49.49621        -2.86504
H         49.39008        49.48326        -3.24772
O         50.08367        49.32427         0.79201
H         50.37237        48.62208         1.41369
O         47.64020        49.88305        -3.15482
H         47.38527        50.75308        -3.53128
O         42.31414        40.75233         2.55925
H         42.21571        39.89796         3.05049
O         51.68780        45.94672        -1.84032
H         50.99346        46.25942        -2.45694
O         35.24213        62.50160         1.10604
H         35.31239        62.39319         0.13551
O         51.41616        60.43037         2.31255
H         52.21882        59.90248         2.51288
O         39.11444        48.05443         0.85957
H         39.22735        49.00310         1.08421
O         53.00245        50.00468        -2.76644
H         52.16028        49.69285        -3.18354
O         47.84330        58.96854        -1.61282
H         47.74257        59.94093        -1.68928
O         37.00168        54.29726         1.37529
H         36.46635        54.72590         2.07606
O         52.38617        61.81059        -0.97001
H         52.45580        61.00637        -1.52475
O         45.72630        41.45151        -0.94612
H         45.05605        40.96660        -1.47179
O         54.46909        54.79008        -1.89645
H         53.92010        55.32516        -2.50595
O         42.78477        57.57017        -1.84968
H         42.65392        56.75267        -2.37580
H         29.39141        56.38205         0.39801
H         28.16770        58.49220         0.68727
H         30.29585        62.20707         1.30010
H         28.16295        60.96057         0.98870
H         31.83676        52.24068        -0.54636
H         30.62980        54.27494         0.06151
H         32.77608        62.19944         1.56046
H         34.29845        48.11819        -0.68376
H         33.04680        50.20120        -1.01518
H         35.25690        61.37129         2.81792
H         36.77097        43.85480        -0.43339
H         35.56155        45.99681        -0.53252
H         37.71033        62.20270         1.81419
H         39.29051        39.59710         0.16160
H         38.00858        41.69082        -0.07107
H         40.22122        62.29801         1.58562
H         41.64827        35.55994         1.80271
H         40.52790        37.56323         0.85358
H         42.67186        62.40305         1.07040
H         45.03838        32.19368         1.76271
H         42.87916        33.42260         1.73740
H         45.14064        62.43809         0.79923
H         47.20484        33.41347         1.70922
H         48.46758        35.53701         1.55626
H         47.60437        62.45840         0.52224
H         49.73113        37.65470         1.26621
H         50.98283        39.83116         1.10833
H         50.10637        62.44339         0.55804
H         52.20380        41.90730         0.90322
H         53.46165        44.01012         0.73991
H         52.62095        62.36464         1.00341
H         54.79276        46.12664         0.17114
H         56.03231        48.00269        -0.53988
H         55.03960        62.39170         0.97666
H         57.23291        50.34447        -0.94820
H         58.50795        52.33962        -0.20128
H         57.49735        62.36625         1.24828
H         59.74494        54.40649         0.20276
H         60.96516        56.53832         0.55049
H         59.96912        62.34501         1.46893
H         62.16524        58.67010         0.86018
H         62.12247        61.10731         1.36905
