         630
 CSIRO Nanostructure Databank - Neutral Graphene Oxide Data Set
C         23.03516        27.34945         0.27572
C         23.02595        28.71277         0.43401
C         23.01772        31.63326         0.73733
C         23.01971        32.99878         0.91894
C         23.03376        35.93117         1.13627
C         23.04320        37.31602         1.17960
C         23.06229        40.23124         1.04085
C         23.05679        41.60620         0.94138
C         23.03707        44.52248         0.80603
C         23.03999        45.90565         0.70423
C         25.48668        24.57922        -0.28213
C         24.28806        25.24543        -0.09394
C         25.48656        27.37693         0.07924
C         24.26251        26.64803         0.09126
C         25.47582        28.79438         0.26067
C         24.23652        29.47112         0.43553
C         25.46257        31.60532         0.71788
C         24.22727        30.89744         0.62200
C         25.44317        33.00398         1.00202
C         24.23455        33.72315         1.06294
C         25.44349        35.90440         1.29989
C         24.23151        35.18279         1.18769
C         25.45477        37.31322         1.32989
C         24.24970        38.04729         1.27318
C         25.46960        40.24038         1.37865
C         24.26657        39.51438         1.25854
C         25.48937        41.66200         1.21227
C         24.25639        42.35253         1.01043
C         25.48317        44.49788         0.86979
C         24.24747        43.79249         0.89330
C         25.48375        45.91993         0.79059
C         24.24922        46.62211         0.70106
C         25.39347        48.77350         0.63256
C         24.24987        48.06562         0.56666
C         28.02587        23.12034        -0.45183
C         27.98150        24.55122        -0.48453
C         26.72070        25.27023        -0.30782
C         27.93125        27.43952        -0.22921
C         26.71761        26.68496        -0.13807
C         27.94922        28.82790        -0.02087
C         26.71318        29.52457         0.26486
C         27.96093        31.63849         0.60993
C         26.70591        30.91147         0.52565
C         27.97195        32.97580         0.96244
C         26.72131        33.68061         1.28679
C         27.97521        35.95337         1.20248
C         26.72560        35.18797         1.46036
C         28.00591        37.32291         1.26840
C         26.73262        38.01821         1.59433
C         28.03576        40.23754         1.61627
C         26.72274        39.51354         1.68436
C         28.01290        41.73538         1.43104
C         26.71865        42.40504         1.20233
C         27.97596        44.51727         0.84522
C         26.73009        43.79233         0.96820
C         27.94404        45.94633         0.72883
C         26.72427        46.62962         0.77231
C         27.85433        48.81853         0.18149
C         26.71955        48.12956         0.94628
C         28.05749        50.20760         0.74086
C         30.44928        23.11073        -0.78974
C         29.20061        22.43475        -0.61549
C         30.43151        24.55449        -0.79850
C         29.17655        25.25073        -0.67553
C         30.41224        27.50451        -0.86198
C         29.13429        26.73202        -0.72225
C         30.43229        28.90570        -0.36374
C         29.19512        29.57477        -0.04253
C         30.44120        31.66396         0.42765
C         29.20735        30.93583         0.34202
C         30.47765        33.04290         0.71345
C         29.24740        33.72722         1.23884
C         30.45218        35.95064         0.61920
C         29.16879        35.18670         0.80366
C         30.46114        37.40629         0.85529
C         29.24464        38.08866         1.09609
C         30.47639        40.23704         1.12875
C         29.26488        39.50565         1.25148
C         30.47297        41.70327         1.06231
C         29.26297        42.41867         1.04613
C         30.46234        44.55876         0.69225
C         29.22489        43.83132         0.84239
C         30.44604        45.95762         0.49319
C         29.19217        46.68553         0.50038
C         30.34563        48.77227        -0.33503
C         29.15253        48.03758         0.21611
C         30.42674        50.22243         0.10520
C         29.24645        50.83828         0.67436
C         32.80846        20.27354        -1.40890
C         31.68926        20.95603        -1.09699
C         32.91128        23.10123        -1.04976
C         31.66505        22.40186        -0.98003
C         32.88741        24.53710        -0.86718
C         31.65712        25.25134        -0.85615
C         32.90902        27.38459        -0.41301
C         31.72536        26.75126        -1.09822
C         32.90551        28.82372        -0.23877
C         31.65092        29.56668        -0.23915
C         32.88214        31.65081         0.20747
C         31.68352        30.97474         0.12739
C         32.97915        33.03151         0.79433
C         31.68873        33.79216         0.68350
C         32.94310        35.92906         0.62523
C         31.72022        35.19581         0.69769
C         32.95442        37.35528         0.71118
C         31.70336        38.09876         0.89414
C         32.97656        40.22885         1.18327
C         31.69565        39.50833         1.02833
C         32.99119        41.73106         1.12384
C         31.70111        42.45275         0.95397
C         33.00594        44.63066         0.88865
C         31.70573        43.83517         0.78168
C         32.91739        46.00901         0.28389
C         31.68114        46.67579         0.23663
C         32.83593        48.76150        -0.34797
C         31.65575        48.05829        -0.12317
C         32.76751        50.21607        -0.76204
C         31.59306        50.92011        -0.11157
C         32.84356        53.02784        -0.16538
C         31.69612        52.34314         0.09501
C         35.22494        18.88213        -0.42107
C         35.29520        20.06945        -1.17428
C         34.12547        20.92529        -1.72882
C         35.33719        23.19927        -1.26371
C         34.13899        22.42419        -1.31610
C         35.34221        24.55877        -0.76819
C         34.10565        25.24614        -0.64580
C         35.31096        27.29512         0.18818
C         34.06950        26.64605        -0.29013
C         35.33667        28.78991         0.27887
C         34.08862        29.50360        -0.01967
C         35.40247        31.68325         0.01098
C         34.11572        30.97553        -0.29769
C         35.38998        33.10486         0.07462
C         34.18678        33.80710         0.34340
C         35.39745        35.93496         0.20552
C         34.17547        35.21184         0.40146
C         35.39953        37.35643         0.30956
C         34.18794        38.04070         0.59484
C         35.47111        40.23431         0.49242
C         34.26516        39.48113         0.91308
C         35.45731        41.63200         0.35026
C         34.26959        42.43116         0.73290
C         35.32046        44.50844        -0.12340
C         34.22054        43.87163         0.38054
C         35.34130        45.96310        -0.26408
C         34.11160        46.68463        -0.07839
C         35.31220        48.79855        -0.56306
C         34.08807        48.08587        -0.33853
C         35.29983        50.24022        -0.65286
C         34.07861        50.94781        -0.59135
C         35.30217        53.07085        -0.68411
C         34.07994        52.35200        -0.49691
C         35.31162        54.52690        -0.69061
C         37.68168        18.75971        -0.24917
C         36.39690        18.19018        -0.08110
C         37.75882        20.04438        -0.84180
C         36.59503        20.50098        -1.46632
C         37.83154        23.18532        -1.10659
C         36.61886        22.67641        -1.57907
C         37.81814        24.55336        -0.69701
C         36.58834        25.21754        -0.55531
C         37.87607        27.36327        -0.17719
C         36.62265        26.58799        -0.00924
C         37.88528        28.77983        -0.18717
C         36.64667        29.52927         0.12598
C         37.82073        31.69489        -0.29092
C         36.60911        30.99403        -0.09374
C         37.82849        33.10177        -0.32137
C         36.61807        33.81673        -0.07801
C         37.85184        35.94866        -0.12979
C         36.61522        35.23510        -0.00988
C         37.85050        37.36896        -0.06371
C         36.63559        38.07474         0.15575
C         37.86062        40.21110        -0.10790
C         36.64700        39.50418         0.16754
C         37.82401        41.63211        -0.25895
C         36.60453        42.31282        -0.12946
C         37.77298        44.44735        -0.87894
C         36.44607        43.68732        -0.73751
C         37.77604        45.94542        -0.85552
C         36.51071        46.66292        -0.58106
C         37.78875        48.80384        -0.76519
C         36.53202        48.09184        -0.63883
C         37.78225        50.22802        -0.77670
C         36.52806        50.95452        -0.76123
C         37.77453        53.07019        -1.32410
C         36.50037        52.36771        -0.88090
C         37.74027        54.60067        -1.15062
C         36.43820        55.24208        -0.87692
C         40.17918        16.00452         0.42585
C         38.98056        16.69990         0.34348
C         40.18892        18.75940        -0.19040
C         38.94774        18.07132         0.01776
C         40.23095        20.16665        -0.44863
C         38.92927        20.93338        -0.44825
C         40.20662        23.06461        -0.65755
C         39.02808        22.38357        -0.94377
C         40.26588        24.50519        -0.60122
C         39.06885        25.23254        -0.53225
C         40.31155        27.36457        -0.54709
C         39.07811        26.66516        -0.40848
C         40.30657        28.78943        -0.65104
C         39.06097        29.47475        -0.52087
C         40.28797        31.69904        -0.98582
C         39.01135        30.94008        -0.71825
C         40.29246        33.13448        -0.63538
C         39.07197        33.82091        -0.46045
C         40.30853        35.95284        -0.38421
C         39.07174        35.23989        -0.31061
C         40.29513        37.36437        -0.40422
C         39.08578        38.07888        -0.24987
C         40.32360        40.23227        -0.39003
C         39.07996        39.50769        -0.28168
C         40.30386        41.66594        -0.39310
C         39.06546        42.36128        -0.44908
C         40.27038        44.50349        -0.54862
C         39.05703        43.75962        -0.61358
C         40.25580        45.96133        -0.61903
C         39.05840        46.66909        -0.70028
C         40.26818        48.81741        -0.91813
C         39.03175        48.10293        -0.78078
C         40.22468        50.25797        -0.95146
C         39.01292        50.94051        -0.79308
C         40.26797        53.17060        -0.81976
C         38.96484        52.43948        -0.56860
C         40.27561        54.56196        -0.72686
C         39.01265        55.33623        -0.82402
C         40.22835        57.34232        -0.09758
C         39.04493        56.71731        -0.29421
C         42.65575        15.96094         0.30135
C         41.41696        16.66095         0.21956
C         42.68066        18.75013        -0.16184
C         41.42916        18.06060        -0.05595
C         42.69542        20.17255        -0.28517
C         41.44691        20.85196        -0.40184
C         42.73779        23.06780        -0.22101
C         41.42532        22.32320        -0.28075
C         42.74834        24.51384        -0.49602
C         41.52687        25.20718        -0.55035
C         42.76973        27.34095        -0.66439
C         41.53510        26.63946        -0.60925
C         42.76375        28.77463        -0.74276
C         41.54588        29.47791        -0.80668
C         42.80679        31.61864        -0.61253
C         41.60044        30.94229        -1.20367
C         42.74672        33.02715        -0.23231
C         41.51917        33.82274        -0.45046
C         42.80619        35.95073        -0.29054
C         41.54602        35.22266        -0.37773
C         42.80807        37.35970        -0.40583
C         41.55253        38.08571        -0.80351
C         42.78296        40.26113        -0.38795
C         41.54774        39.54957        -0.45288
C         42.77680        41.68306        -0.34310
C         41.52845        42.39590        -0.38463
C         42.74911        44.57476        -0.04616
C         41.49318        43.81450        -0.39051
C         42.72547        45.99556        -0.53226
C         41.52054        46.67670        -0.67049
C         42.76425        48.81735        -0.84643
C         41.50378        48.10846        -0.89879
C         42.79986        50.25996        -1.17265
C         41.44686        51.01675        -1.25173
C         42.70761        53.17850        -1.03978
C         41.49162        52.47995        -1.02153
C         42.73653        54.57332        -0.76069
C         41.50302        55.27293        -0.62269
C         42.71421        57.34551        -0.20786
C         41.49682        56.67237        -0.32584
C         43.85474        16.62047         0.14358
C         45.16212        18.73797        -0.16823
C         43.90831        18.02718        -0.07030
C         45.17848        20.16219        -0.26922
C         43.94533        20.89155        -0.29466
C         45.21164        23.02330        -0.44707
C         43.98802        22.30720        -0.35095
C         45.22246        24.46361        -0.53023
C         43.99194        25.19631        -0.57172
C         45.24336        27.32823        -0.70143
C         44.00152        26.62390        -0.65935
C         45.23880        28.76968        -0.73515
C         44.02406        29.48153        -0.73717
C         45.27210        31.63372        -0.49593
C         44.01082        30.92305        -0.57885
C         45.30564        33.05573        -0.37240
C         44.06478        33.78081        -0.06108
C         45.25702        35.95929        -0.12902
C         44.03358        35.25263        -0.16894
C         45.22627        37.37361        -0.11408
C         44.01256        38.08777        -0.29275
C         45.24961        40.25409        -0.27147
C         44.01991        39.53697        -0.33174
C         45.25355        41.68574        -0.32693
C         44.02111        42.40819        -0.34395
C         45.26041        44.52242        -0.37815
C         44.02761        43.82462        -0.35228
C         45.28166        45.97379        -0.46964
C         44.01364        46.68642        -0.88040
C         45.20356        48.91636        -0.31195
C         43.95157        48.16505        -0.57198
C         45.18508        50.45933        -0.30063
C         43.98982        51.03759        -0.99263
C         45.23221        53.20723        -0.97707
C         43.99390        52.47506        -1.43152
C         45.22744        54.54467        -0.65773
C         43.97377        55.28789        -0.60618
C         43.93172        56.66312        -0.35321
C         47.60276        18.73992        -0.18118
C         46.40355        18.05464        -0.14655
C         47.64761        20.15297        -0.24281
C         46.42129        20.87320        -0.30941
C         47.68259        23.01922        -0.42296
C         46.44226        22.30532        -0.40831
C         47.69419        24.44452        -0.52171
C         46.45893        25.16936        -0.57913
C         47.71616        27.31273        -0.67831
C         46.46341        26.60455        -0.65601
C         47.72762        28.76067        -0.77123
C         46.49238        29.48533        -0.77492
C         47.69043        31.67125        -0.98751
C         46.46626        30.90790        -0.73403
C         47.72434        33.11762        -0.75558
C         46.50591        33.79578        -0.49836
C         47.71209        35.92743        -0.35201
C         46.51805        35.23887        -0.27164
C         47.78781        37.34241         0.00605
C         46.45995        38.12002         0.11760
C         47.72499        40.25164        -0.10902
C         46.48534        39.56520        -0.10686
C         47.73288        41.66700        -0.17044
C         46.49270        42.39230        -0.25837
C         47.76029        44.55023        -0.01700
C         46.47996        43.81055        -0.29767
C         47.75775        46.00405        -0.42668
C         46.47601        46.66243        -0.50633
C         47.72702        48.85366        -0.88245
C         46.48580        48.14981        -0.43243
C         47.71092        50.33928        -1.03118
C         46.46765        51.11270        -0.81093
C         47.75461        53.24653        -1.27416
C         46.48260        52.46273        -1.00543
C         47.68036        54.56809        -0.53456
C         46.50001        55.16495        -0.28480
C         50.13134        20.19456        -0.09157
C         48.90516        20.87317        -0.21697
C         50.15648        23.00922        -0.24805
C         48.91479        22.29919        -0.30266
C         50.16647        24.44099        -0.37889
C         48.94218        25.15665        -0.53463
C         50.19612        27.32636        -0.70040
C         48.92126        26.58935        -0.62928
C         50.19777        28.79029        -0.56309
C         48.97216        29.45759        -0.72737
C         50.24534        31.65843        -0.65230
C         49.02428        30.90532        -0.96389
C         50.18432        33.07858        -0.71783
C         48.97014        33.79023        -0.79665
C         50.21052        36.02574        -0.62338
C         48.93409        35.29710        -0.96972
C         50.24112        37.39929        -0.45798
C         49.00648        38.12344        -0.24838
C         50.23083        40.23567        -0.15385
C         48.97816        39.51196        -0.16029
C         50.23313        41.65073        -0.18138
C         48.99189        42.38096        -0.23440
C         50.24694        44.47644        -0.64975
C         48.98811        43.76546        -0.38474
C         50.23516        45.98488        -0.69137
C         48.94846        46.70462        -0.53580
C         50.21950        48.81928        -0.74331
C         49.01532        48.13952        -0.69411
C         50.24772        50.27505        -1.04647
C         48.99890        51.06973        -0.98570
C         50.28881        53.13500        -0.88126
C         49.02496        52.44321        -1.00414
C         51.33559        20.89093        -0.02170
C         52.70337        23.01058        -0.10065
C         51.37233        22.28662        -0.07024
C         52.55745        24.47534         0.23128
C         51.41652        25.13903        -0.15835
C         52.65562        27.38056         0.02625
C         51.48555        26.59459        -0.41309
C         52.62327        28.77938        -0.03784
C         51.42093        29.49538        -0.35205
C         52.68423        31.62949        -0.17491
C         51.43294        30.93843        -0.34893
C         52.70185        33.10853        -0.23577
C         51.43496        33.84452        -0.49460
C         52.77179        36.03579        -0.81463
C         51.46110        35.29384        -0.86854
C         52.75281        37.44939        -0.41693
C         51.50197        38.12207        -0.33742
C         52.69471        40.22459         0.34072
C         51.45417        39.51289        -0.10839
C         52.69165        41.67753        -0.02598
C         51.49993        42.35916        -0.18279
C         52.68129        44.54017        -0.16568
C         51.51542        43.79837        -0.36231
C         52.66177        45.98920        -0.13476
C         51.48177        46.70716        -0.39534
C         52.68116        48.83026        -0.25733
C         51.47923        48.13449        -0.46414
C         52.88087        50.27935        -0.67469
C         51.57144        51.02697        -0.96057
C         51.47478        52.48146        -0.76557
C         54.90313        22.99683         1.09686
C         53.83664        22.33375         0.63190
C         54.96031        24.48292         1.15760
C         53.71792        25.23642         0.74327
C         55.03574        27.35663         0.71900
C         53.81158        26.68510         0.49101
C         55.09426        28.78105         0.55958
C         53.78629        29.53747         0.56843
C         55.12398        31.67327         0.19551
C         53.87647        30.96869         0.09977
C         55.21779        33.05155         0.02772
C         54.02165        33.78163        -0.45020
C         55.28179        36.00880        -0.29059
C         54.05929        35.26843        -0.66732
C         55.26231        37.38837        -0.12386
C         53.99386        38.12393        -0.17043
C         55.19611        40.23198         0.26279
C         53.98580        39.50703         0.04978
C         55.17957        41.64892         0.33802
C         53.99743        42.39361        -0.22756
C         55.00602        44.54572         0.62211
C         53.91479        43.85604         0.13977
C         55.01092        45.99395         0.66463
C         53.84828        46.69883         0.22725
C         55.01593        48.84385         0.57531
C         53.84542        48.12498         0.18256
C         54.90366        50.28436         0.73846
C         53.84159        50.96859         0.26183
C         57.47390        24.51146         1.19460
C         56.25120        25.20636         1.09811
C         57.49816        27.32561         0.98224
C         56.25570        26.61885         0.94886
C         57.53070        28.74741         0.85103
C         56.30812        29.45387         0.62203
C         57.49842        31.64161         1.01073
C         56.42522        30.90522         0.21737
C         57.61356        33.09803         0.57707
C         56.47285        33.76076         0.13098
C         57.78798        35.97889         0.27216
C         56.52376        35.21365        -0.18028
C         57.66929        37.42127         0.55075
C         56.46416        38.10859         0.28319
C         57.57465        40.24276         0.92028
C         56.41597        39.52272         0.49076
C         57.51402        41.66297         1.10183
C         56.30460        42.34567         0.78790
C         57.40661        44.52707         1.56505
C         56.17607        43.77922         1.11548
C         57.36594        46.02725         1.55361
C         56.16717        46.72036         1.03706
C         57.47488        48.83181         0.96983
C         56.19723        48.13989         0.92148
C         58.68443        25.18971         1.21093
C         59.95495        27.31476         1.15239
C         58.71865        26.59888         1.12503
C         59.98011        28.68437         1.08205
C         58.77883        29.45414         0.95839
C         59.98750        31.62322         1.17774
C         58.80914        30.88076         0.98507
C         59.99133        33.01475         1.20303
C         58.84128        33.79095         0.87990
C         59.94326        35.95395         1.46475
C         58.88349        35.21467         0.88581
C         59.92923        37.33480         1.50961
C         58.79989        38.10366         1.08963
C         59.92491        40.28199         1.61373
C         58.77648        39.53184         1.21528
C         59.89907        41.65201         1.69593
C         58.70264        42.40158         1.46023
C         59.90130        44.60347         1.46155
C         58.69873        43.82037         1.52283
C         59.91517        45.96955         1.44449
C         58.68552        46.77609         1.56122
C         58.65544        48.18470         1.13554
O         51.94308        33.69473         0.89458
O         29.62483        35.50674        -0.54283
O         33.79297        39.73168         2.28934
O         50.26807        45.20773        -1.95070
O         41.97886        22.74996         1.01919
O         51.08251        26.87885        -1.80175
O         26.68433        38.68785         2.90481
O         45.96416        48.50543         0.90468
O         35.97084        26.65222         1.32041
O         42.10878        50.56465        -2.47281
O         33.87303        42.27328         2.16199
O         57.91109        46.56820         2.79943
O         43.33434        33.27026         1.10406
O         54.02535        24.96781         2.18649
O         36.71866        21.54873        -2.39454
O         39.37601        31.37780        -2.09678
O         26.76351        34.31709         2.65091
O         28.17125        41.12457         2.77315
O         29.54138        27.32241        -2.03667
O         48.38349        31.28395        -2.22333
O         38.47304        55.28039        -2.22769
O         36.06821        29.25081         1.46083
O         57.55274        35.60798        -1.13249
O         47.58960        49.44445        -2.22173
O         54.25265        34.33105        -1.78888
O         47.19253        37.66955         1.30716
O         56.45047        43.99571         2.54939
O         37.77770        45.19810        -2.15056
O         52.11867        35.71474        -2.10717
O         51.03304        50.59397        -2.25784
O         32.02253        26.89114        -2.52616
H         31.15112        26.85291        -2.98767
O         53.12923        22.99998        -1.51561
H         52.40857        23.40609        -2.04398
O         48.78153        35.52126        -2.42036
H         49.63461        35.29208        -2.84987
O         44.03446        52.48031        -2.90168
H         43.30176        51.88661        -3.20008
O         26.99018        48.37175         2.36311
H         26.30818        47.89861         2.88451
O         32.51685        50.22672        -2.20596
H         31.62686        49.81464        -2.34091
O         37.92907        52.78734        -2.72681
H         38.30272        53.59896        -3.14418
O         52.61860        40.20629         1.83488
H         51.74900        40.58803         2.08401
O         41.55794        38.05555        -2.28902
H         40.75572        38.53200        -2.59286
O         41.83888        30.94261        -2.64852
H         40.95152        30.86423        -3.07218
O         47.80530        53.57840        -2.69117
H         47.76997        52.73947        -3.19781
O         33.21459        44.86597         2.31887
H         33.42234        43.98217         2.71494
O         27.44408        48.93988        -1.20677
H         28.24147        49.21746        -1.71844
O         42.73688        44.67016         1.43957
H         42.69820        43.75421         1.78959
O         38.66689        52.63925         0.84759
H         39.36351        52.19543         1.37505
O         33.18988        32.81958         2.24518
H         32.32849        32.54800         2.63079
O         38.64134        21.15264         0.98957
H         39.41904        21.60562         1.38395
O         47.82980        44.62962         1.47455
H         47.63391        43.73318         1.82378
O         34.23327        20.89647        -3.17886
H         35.12641        21.24533        -3.40752
O         44.09797        46.63816        -2.36917
H         43.26749        47.02364        -2.72502
O         45.05487        50.86600         1.10109
H         45.50602        50.16879         1.63484
O         56.89968        30.88643        -1.16138
H         56.19052        30.52038        -1.72983
O         53.58209        50.20457        -1.95548
H         52.88785        50.05159        -2.63848
O         54.23088        42.38467        -1.68860
H         53.47342        42.84666        -2.10907
O         34.04326        31.08281        -1.78209
H         33.20334        30.66011        -2.06632
O         53.43986        29.65337         2.00182
H         53.49854        28.75480         2.39188
O         30.13742        48.82315        -1.81682
H         30.16268        47.89651        -2.14121
O         57.06388        31.65914         2.40162
H         57.77244        32.07717         2.93416
O         35.98069        43.39411        -2.09209
H         36.37114        44.09311        -2.67175
O         29.42096        33.75520         2.69510
H         28.53404        33.97466         3.08140
H         22.09283        26.78320         0.28530
H         22.06312        29.22122         0.57410
H         22.05126        31.11857         0.65998
H         22.05603        33.52114         0.97510
H         22.06423        35.42150         1.06515
H         22.07799        37.83750         1.15120
H         22.10834        39.69768         0.94729
H         22.09772        42.11453         0.78037
H         22.07198        44.00029         0.82323
H         22.08927        46.45276         0.63110
H         25.46190        23.49196        -0.43133
H         23.34201        24.68554        -0.09009
H         25.36849        49.86713         0.52030
H         23.28699        48.56825         0.38953
H         27.10342        22.54815        -0.28935
H         27.19439        50.72648         1.18193
H         29.17132        21.33784        -0.58631
H         29.32860        51.85978         1.07253
H         32.75177        19.18246        -1.53685
H         30.75915        20.39190        -0.94269
H         32.84033        54.11747        -0.03303
H         30.81237        52.90333         0.42990
H         34.25271        18.45459        -0.13730
H         34.36931        55.06789        -0.53515
H         36.29805        17.21156         0.40923
H         36.39572        56.34017        -0.89333
H         40.17490        14.92973         0.65760
H         38.03873        16.15914         0.51099
H         40.25193        58.38748         0.24567
H         38.10044        57.25667        -0.13731
H         42.64425        14.87897         0.49696
H         42.71996        58.42190         0.01631
H         44.78512        16.04180         0.21661
H         44.86585        57.23144        -0.25005
H         48.53319        18.15819        -0.15439
H         46.42982        16.95839        -0.09600
H         48.61222        55.09007        -0.27421
H         46.48631        56.14785         0.20821
H         50.16128        19.09904        -0.03780
H         50.28487        54.23204        -0.82358
H         52.26585        20.31512         0.07036
H         52.39029        53.05865        -0.57417
H         55.72674        22.43106         1.55885
H         53.84581        21.23478         0.66854
H         55.66375        50.80475         1.33962
H         53.76056        52.04951         0.44364
H         57.47400        23.41651         1.28104
H         57.48510        49.90017         0.71077
H         59.62680        24.63160         1.30467
H         60.89337        26.74882         1.24305
H         60.95055        29.19673         1.12366
H         60.94990        31.10818         1.30613
H         60.94708        33.52441         1.38499
H         60.80655        35.42499         1.89151
H         60.79442        37.84575         1.95182
H         60.86568        39.76190         1.83823
H         60.81385        42.18043         1.99705
H         60.86140        44.07624         1.36548
H         60.86964        46.50050         1.31268
H         59.60850        48.71783         1.00294
