         404
 CSIRO Nanostructure Databank - Neutral Graphene Oxide Data Set
C          1.23956         3.43545        -1.48406
C          0.13876         4.20663        -1.80376
C          1.17109         6.27163        -0.87728
C          0.08235         5.58121        -1.56513
C          1.20710         7.76132        -0.89194
C          0.00433         8.47633        -0.88965
C          1.19804        10.60238        -0.85728
C         -0.00230         9.86840        -0.85034
C          1.17905        12.05820        -0.89072
C          0.02238        12.78954        -0.69491
C          1.15924        14.97824        -0.75035
C          0.02671        14.20304        -0.58049
C          1.14824        16.36971        -0.26944
C          0.26949        16.85367         0.73904
C          1.32422        19.07247         0.67742
C          0.29776        18.18960         1.11244
C          1.33276        20.48997         0.95114
C          0.20071        21.16204         1.47767
C          1.28656        23.33310         1.22227
C          0.16179        22.54289         1.56353
C          1.25152        24.79950         1.34351
C          0.05750        25.52660         1.53076
C          1.28120        27.64561         1.69018
C          0.07835        26.90824         1.70359
C          1.31372        29.08083         1.97843
C          0.20327        29.85503         2.22636
C          1.48192        31.91016         2.63923
C          0.28412        31.25588         2.54397
C          1.47479        34.33863         2.16573
C          0.23843        34.97172         1.96240
C          1.27395        36.80637         0.71149
C          0.13710        36.14901         1.19907
C          1.23590        37.99388        -0.07502
C          3.70398         3.49007        -1.69452
C          2.51141         3.96697        -0.88113
C          3.69794         6.32866        -0.57864
C          2.44911         5.50763        -0.59595
C          3.68416         7.74098        -0.79731
C          2.43992         8.46909        -0.86057
C          3.68863        10.62444        -0.92169
C          2.43748         9.89871        -0.88348
C          3.70888        12.04941        -1.07622
C          2.42014        12.77071        -1.24764
C          3.71676        15.01426        -1.26178
C          2.38627        14.32695        -1.28303
C          3.84300        16.33817        -1.56746
C          2.05579        17.30895        -0.77070
C          3.58462        19.27318        -0.40486
C          2.34906        18.54918        -0.16187
C          3.62985        20.60075         0.00488
C          2.46996        21.25229         0.56725
C          3.70645        23.39146         0.68563
C          2.45870        22.66674         0.78494
C          3.71950        24.78284         1.17784
C          2.46059        25.53321         1.29744
C          3.74614        27.67768         1.22875
C          2.49934        26.94175         1.46012
C          3.78850        29.10852         1.39415
C          2.64811        29.71057         2.10298
C          3.98484        31.87669         2.06046
C          2.75796        31.16779         2.49368
C          3.91469        34.21732         1.58738
C          2.66348        34.88309         1.61738
C          3.81764        36.74665         0.28962
C          2.58552        36.22612         1.02569
C          3.63442        37.87009        -0.65135
C          2.35605        38.50829        -0.70155
C          6.26149         3.30447        -1.61385
C          4.95707         3.62554        -1.14635
C          6.18248         6.28330        -0.72873
C          4.93087         5.68676        -0.41191
C          6.16968         7.73531        -0.79112
C          4.92243         8.46029        -0.84549
C          6.16780        10.61962        -1.10993
C          4.90366         9.88621        -0.93653
C          6.18291        12.09974        -1.06188
C          4.93659        12.76417        -1.11264
C          6.29537        14.99433        -1.32420
C          4.95446        14.21254        -1.38086
C          6.29162        16.45207        -1.09118
C          5.03995        17.18026        -1.38707
C          6.14736        19.24972        -0.36904
C          4.88074        18.63128        -0.88384
C          6.14163        20.63578        -0.11359
C          4.85829        21.41260        -0.34776
C          6.13656        23.48486         0.30259
C          4.87518        22.77843         0.28770
C          6.16670        24.87947         0.44763
C          4.98365        25.58024         0.94021
C          6.05404        27.76660         0.21088
C          4.89682        27.02739         0.82568
C          6.12246        29.21300         0.61705
C          4.93975        29.85846         1.08734
C          6.05342        32.06882         0.60459
C          4.98873        31.29936         1.33818
C          6.03061        33.55806         0.31419
C          4.97588        34.55140         0.72791
C          5.99888        36.27869        -0.73515
C          4.94703        35.82237         0.07377
C          5.97996        37.59240        -1.31672
C          4.73606        38.29762        -1.38011
C          8.68343         3.49065        -1.46540
C          7.40930         4.09598        -1.29596
C          8.60752         6.31340        -1.25430
C          7.34976         5.51286        -0.96871
C          8.56559         7.59303        -0.46431
C          7.39376         8.39593        -0.55218
C          8.63241        10.68354        -0.44717
C          7.46007         9.85977        -0.76856
C          8.69094        12.05689        -0.98188
C          7.42051        12.81653        -1.03748
C          8.69271        14.94673        -0.62880
C          7.49706        14.22373        -0.98899
C          8.65262        16.35852        -0.38356
C          7.41775        17.09780        -0.58940
C          8.57669        19.19343         0.06701
C          7.36786        18.52166        -0.30245
C          8.57763        20.60826         0.25013
C          7.34971        21.32703         0.12906
C          8.58629        23.46765         0.34102
C          7.36287        22.76495         0.21850
C          8.60335        24.89514         0.34276
C          7.37697        25.61601         0.35133
C          8.57599        27.74892         0.33130
C          7.36851        27.03827         0.36278
C          8.57948        29.19488         0.28716
C          7.33857        29.91668         0.46265
C          8.53058        32.03333         0.10267
C          7.34863        31.34917         0.42961
C          8.48798        33.44357        -0.24866
C          7.29033        34.15021        -0.20605
C          8.48782        36.14515        -1.32781
C          7.18923        35.44052        -0.90123
C          8.44556        37.60162        -1.55698
C          7.18599        38.21746        -1.71917
C         11.13957         3.44279        -1.13886
C          9.93829         4.15258        -1.26125
C         11.07865         6.28264        -0.73994
C          9.91572         5.58341        -1.06966
C         11.01997         7.59338        -0.17311
C          9.73909         8.05305         0.13787
C         11.02780        10.75769         0.17163
C          9.71393        10.21488         0.25549
C         11.15366        12.08084        -0.20054
C          9.98092        12.81702        -0.70926
C         11.07804        14.89119         0.04761
C          9.92025        14.25568        -0.44888
C         11.03895        16.29540         0.28094
C          9.83123        17.02755         0.05204
C         10.96825        19.16377         0.61878
C          9.80188        18.46745         0.23402
C         10.97826        20.57178         0.76833
C          9.79366        21.30904         0.54030
C         11.00951        23.48554         0.66360
C          9.81347        22.75509         0.53017
C         11.05612        24.90109         0.51483
C          9.82747        25.61480         0.38769
C         11.05618        27.73904         0.29208
C          9.82095        27.03687         0.34757
C         11.05154        29.16107         0.11651
C          9.79326        29.88389         0.12885
C         10.97779        32.02412        -0.24305
C          9.77657        31.31972        -0.01066
C         10.94952        33.41943        -0.46392
C          9.72709        34.11550        -0.59647
C         10.94901        36.22560        -1.12575
C          9.74975        35.49260        -0.97375
C         10.90754        37.63936        -1.42196
C          9.66133        38.29901        -1.60573
C         13.66594         3.44269        -0.62559
C         12.43333         4.12120        -1.04674
C         13.56888         6.31949        -0.19898
C         12.40389         5.65997        -0.83931
C         13.51966         7.67110         0.18975
C         12.24698         8.41091         0.00816
C         13.44547        10.59096         0.86903
C         12.24900         9.89324         0.24153
C         13.64406        11.96719         0.17447
C         12.36965        12.78369         0.08078
C         13.42667        14.79872         1.03370
C         12.30564        14.14510         0.27221
C         13.46023        16.28740         0.86873
C         12.25274        16.96140         0.68229
C         13.50844        19.12999         1.10435
C         12.18654        18.40005         0.95841
C         13.51941        20.59652         0.98168
C         12.21931        21.28508         1.16019
C         13.52445        23.51570         0.88226
C         12.24676        22.80263         1.04510
C         13.54514        24.89351         0.66755
C         12.29439        25.61201         0.53370
C         13.53523        27.73392         0.25629
C         12.29015        27.02198         0.35721
C         13.51817        29.15553         0.00963
C         12.27451        29.83657        -0.06201
C         13.52785        31.98831        -0.35969
C         12.23817        31.25196        -0.57098
C         13.52136        33.45337        -0.35785
C         12.20770        34.19730        -0.47808
C         13.42318        36.25758        -1.25457
C         12.21675        35.58730        -0.97963
C         13.38994        37.71372        -1.40069
C         12.12385        38.34671        -1.44421
C         16.06260         3.44945        -0.05657
C         14.81346         4.14855        -0.32372
C         15.96547         6.28635         0.24702
C         14.78654         5.59180        -0.12367
C         15.93829         7.65366         0.54612
C         14.71270         8.38822         0.53886
C         15.96102        10.50312         1.02478
C         14.73298         9.79708         0.78592
C         15.98444        11.97622         1.09655
C         14.80048        12.70981         0.79442
C         15.96862        14.82002         1.10705
C         14.76063        14.09704         0.91638
C         15.96218        16.25547         1.03718
C         14.71938        16.97051         0.99272
C         15.97178        19.06927         0.74419
C         14.75740        18.38050         0.93680
C         15.92289        20.52124         0.47557
C         14.69230        21.26945         0.83881
C         16.08179        23.46897         0.74814
C         14.76074        22.74015         1.00974
C         16.03238        24.91767         0.49834
C         14.79907        25.61835         0.54593
C         16.01488        27.79709         0.31574
C         14.75431        27.03459         0.35541
C         15.99771        29.20873        -0.11044
C         14.75044        29.86648        -0.19703
C         15.98281        32.00700        -0.56796
C         14.73309        31.29989        -0.39146
C         15.95560        33.41447        -0.85219
C         14.73442        34.14064        -0.80372
C         15.85767        36.00240        -1.78755
C         14.65904        35.48042        -1.25187
C         15.82793        38.13964        -1.71496
C         14.53769        38.56504        -1.32199
C         18.48505         3.44027         0.47972
C         17.24932         4.11071         0.09641
C         18.55547         6.31468         0.23384
C         17.26271         5.59139         0.05066
C         18.49442         7.62952         0.95938
C         17.16129         8.32932         1.02531
C         18.39768        10.43883         1.62389
C         17.15458         9.78803         1.16901
C         18.37491        11.94313         1.82619
C         17.16149        12.68543         1.41145
C         18.41947        14.85964         1.32987
C         17.19396        14.11436         1.29131
C         18.43327        16.24075         1.06481
C         17.19204        16.96094         0.95384
C         18.45310        19.09259         0.56811
C         17.19879        18.37641         0.74545
C         18.46905        20.45597         0.28774
C         17.21770        21.23775         0.21270
C         18.42517        23.39970        -0.00573
C         17.27593        22.71489         0.32910
C         18.42114        24.83283        -0.09701
C         17.25975        25.56156         0.15462
C         18.50277        27.73472        -0.33955
C         17.31883        27.03577         0.19098
C         18.46900        29.15377        -0.47895
C         17.22227        29.88246        -0.36015
C         18.43417        31.99680        -0.89427
C         17.20668        31.29922        -0.60572
C         18.41962        33.40750        -1.11931
C         17.17343        34.10159        -1.12409
C         18.32788        36.27161        -1.61753
C         17.13068        35.46961        -1.51607
C         18.29548        37.71461        -1.55551
C         17.11031        38.51915        -1.33189
C         19.65737         4.08901         0.66026
C         20.97516         6.25422         0.95680
C         19.87335         5.52653         0.22833
C         20.95861         7.58210         1.21375
C         19.75519         8.39704         1.14150
C         20.90915        10.53458         1.62822
C         19.70640         9.74302         1.45331
C         20.91220        11.87445         1.82786
C         19.68145        12.68396         1.93365
C         20.93336        14.88523         1.30703
C         19.69240        14.17446         1.66433
C         20.91333        16.19738         0.97883
C         19.68405        16.96653         0.92348
C         20.93269        19.10286         0.60221
C         19.69613        18.34891         0.69030
C         20.96804        20.42310         0.29898
C         19.73329        21.16338        -0.00450
C         20.92787        23.50006         0.07682
C         19.71822        22.66927        -0.19274
C         20.89162        24.83143        -0.08944
C         19.65768        25.48154        -0.68548
C         20.81325        27.68985        -1.04951
C         19.65915        26.99807        -0.64661
C         20.82241        29.07800        -1.12145
C         19.66339        29.83600        -0.85711
C         20.83074        32.01361        -1.30378
C         19.65795        31.28504        -1.00790
C         20.81379        33.39088        -1.48910
C         19.61451        34.12830        -1.40974
C         20.77542        36.33011        -1.58116
C         19.57981        35.58410        -1.55767
C         20.74554        37.72513        -1.57864
C         19.53228        38.40187        -1.51877
O          3.54909        37.13878         1.67502
O         16.87744        27.56822         1.49096
O         17.95565         6.27129        -1.09912
O         12.48982         9.40717        -1.12707
O          5.50570        32.57070        -0.68383
O          4.63044        25.05521         2.29075
O         12.12724        22.10769         2.35710
O          9.59007         9.08799         1.06894
O          2.70932        17.03554        -1.97322
O         17.73015         7.58094         2.20805
O          4.97057         4.38497         0.06304
O          1.53641        33.24744         3.04611
O         18.19534        11.04432         2.96544
O         12.89053        34.06624         0.83628
O          4.05818        33.18555         2.51121
O         15.64247        23.11092         2.12472
O         12.68637         5.08808        -2.13730
O          5.69500        14.57033        -2.59131
O         16.33106        20.83475        -0.91901
O          2.97750        30.11437         3.49497
O          5.05710        18.32964        -2.30621
O         19.70354        13.63514         3.05014
O          9.61289        12.36677        -2.06800
O         12.73246        18.72106         2.28748
O          7.03780        10.10061        -2.16817
O          7.68642        35.37864        -2.28134
O         15.78393        37.08142        -2.65801
O         19.76907        21.81000        -1.37147
O          2.24646        13.53087        -2.49375
O          1.51772         5.75083         0.49711
O          2.61889         3.33794         0.42715
H          2.03340         3.85682         1.02493
O         14.05805        11.70723        -1.19118
H         13.48885        10.99125        -1.56074
O         13.10792        10.80265         2.25743
H         13.83931        11.29743         2.68441
O          5.76900        27.77767        -1.24717
H          6.41064        28.39141        -1.66526
O         12.16949        31.10283        -2.05433
H         11.37435        30.56176        -2.25249
O         13.05160        14.59298         2.45499
H         13.51698        15.27285         2.98838
O         19.65442        25.14386        -2.10891
H         19.68262        24.16525        -2.18858
O          4.78870        21.65682        -1.79256
H          4.80568        20.78568        -2.24643
O          8.55067         6.67341        -2.68456
H          7.88672         7.38964        -2.78668
O         20.34910         5.43667        -1.14388
H         19.54779         5.52485        -1.71594
H          1.21002         2.35315        -1.67570
H         -0.72752         3.72309        -2.27995
H         -0.77126         6.16077        -1.94107
H         -0.95375         7.93902        -0.89040
H         -0.96937        10.38731        -0.84032
H         -0.92784        12.27582        -0.49704
H         -0.90784        14.68771        -0.26444
H         -0.48181        16.18473         1.18139
H         -0.46441        18.55808         1.81239
H         -0.68578        20.58376         1.77181
H         -0.75240        23.02535         1.93542
H         -0.90997        25.00635         1.55530
H         -0.87522        27.42895         1.86841
H         -0.80112        29.41192         2.17507
H         -0.64969        31.81172         2.70197
H         -0.66876        34.51794         2.38253
H         -0.85705        36.57721         1.00506
H          0.26535        38.49137        -0.21955
H          3.54530         2.95347        -2.63990
H          2.25381        39.40964        -1.32385
H          6.40825         2.41307        -2.24205
H          4.66933        39.21009        -1.99126
H          8.70758         2.41681        -1.70874
H          7.14854        39.27287        -2.02816
H         11.11844         2.34337        -1.08865
H          9.65591        39.38398        -1.78794
H         13.68633         2.34201        -0.61697
H         12.09238        39.44016        -1.56411
H         16.03778         2.35029         0.00242
H         14.38759        39.59434        -0.96138
H         18.42398         2.35961         0.68355
H         17.24715        39.46663        -0.78869
H         20.54706         3.51867         0.96830
H         21.90767         5.69179         1.11704
H         21.87048         8.04718         1.61691
H         21.87697        10.01628         1.57623
H         21.87194        12.38777         1.98093
H         21.89163        14.35134         1.36946
H         21.86527        16.69253         0.74515
H         21.88437        18.58906         0.79340
H         21.93439        20.93945         0.21226
H         21.84300        23.00824         0.43966
H         21.78029        25.44227         0.13077
H         21.72147        27.12936        -1.31098
H         21.74942        29.57847        -1.43058
H         21.79410        31.49333        -1.38882
H         21.76164        33.89524        -1.71984
H         21.74847        35.82221        -1.55844
H         21.68796        38.29015        -1.57980
H         19.52567        39.49952        -1.45530
