         410
 CSIRO Nanostructure Databank - Neutral Graphene Oxide Data Set
C         27.91406        27.53267        -1.10428
C         27.89877        28.94498        -0.93778
C         26.68325        29.67833        -0.96696
C         27.87900        31.76503        -0.53740
C         26.67484        31.03787        -0.72375
C         27.85097        33.14585        -0.13867
C         26.73480        33.74628         0.46268
C         27.94041        35.85943         0.83825
C         26.76858        35.07049         0.89750
C         27.96805        37.22686         1.32080
C         26.84417        37.77325         1.96505
C         27.98660        39.88481         2.18588
C         26.87268        39.08132         2.43224
C         27.90577        42.18569         1.81483
C         26.69002        42.88664         1.66363
C         27.86448        44.48267         0.27311
C         26.66113        43.99655         0.84494
C         27.85326        45.71898        -0.43517
C         30.32078        27.45619        -0.68626
C         29.08785        26.81690        -0.98152
C         30.34957        28.89982        -0.61542
C         29.12841        29.63589        -0.72707
C         30.37319        31.74593        -0.49075
C         29.13591        31.06456        -0.62508
C         30.40628        33.21335        -0.54592
C         29.04365        33.96964        -0.31862
C         30.35298        36.00585         0.32506
C         29.12447        35.30516         0.27675
C         30.36700        37.38533         0.73510
C         29.15086        38.01893         1.15858
C         30.33322        40.21616         1.30510
C         29.14770        39.41168         1.51213
C         30.33058        41.72077         1.36180
C         29.08061        42.52834         1.14876
C         30.32363        44.40617         0.03391
C         29.09689        43.78067         0.45682
C         30.28345        45.68936        -0.57850
C         29.02641        46.30355        -0.84278
C         32.72523        24.59641        -0.05055
C         31.52888        25.30371        -0.24947
C         32.70922        27.43760         0.03501
C         31.49374        26.69911        -0.35056
C         32.85596        28.84550        -0.48516
C         31.55893        29.60211        -0.39289
C         32.83180        31.69456        -0.06133
C         31.58522        31.01548        -0.31813
C         32.90351        33.17132        -0.36041
C         31.61216        33.93139        -0.18062
C         32.83252        36.04725         0.19741
C         31.60212        35.31704         0.05915
C         32.83120        37.41168         0.55713
C         31.58214        38.11418         0.79621
C         32.79450        40.27315         0.95731
C         31.54345        39.53997         1.03146
C         32.84705        41.64905         0.82904
C         31.61247        42.44282         0.98631
C         32.78858        44.34339        -0.09406
C         31.58130        43.76898         0.32131
C         32.76738        45.62370        -0.81552
C         31.51405        46.37618        -0.91812
C         32.78756        48.44547        -1.33417
C         31.57109        47.70648        -1.30922
C         35.24477        23.14005        -0.32533
C         35.22060        24.52905        -0.02035
C         33.97054        25.22375         0.09831
C         35.27950        27.40790         0.24821
C         33.99622        26.67726         0.29861
C         35.26899        28.83331         0.27589
C         34.05299        29.55805         0.08792
C         35.24193        31.66236         0.64020
C         34.01115        30.96640         0.18906
C         35.26045        33.20203         0.62584
C         34.08628        33.91046         0.16129
C         35.35491        36.01977         0.43950
C         34.13922        35.36852        -0.15100
C         35.32860        37.41157         0.69005
C         34.08082        38.09204         0.75109
C         35.36528        40.28115         1.09562
C         34.04543        39.50681         1.11124
C         35.32619        41.70334         0.74392
C         34.08724        42.36656         0.60763
C         35.29368        44.44507         0.00075
C         34.05798        43.72183         0.16905
C         35.31522        45.81276        -0.36121
C         34.09780        46.43119        -0.90669
C         35.22498        48.71029        -0.65857
C         34.00729        47.88131        -1.03658
C         35.30937        50.02007        -1.39143
C         37.68007        23.10567        -0.35272
C         36.42273        22.45684        -0.51060
C         37.67000        24.48450         0.02278
C         36.46684        25.21972         0.14154
C         37.71267        27.38735         0.44399
C         36.48928        26.67462         0.30871
C         37.74406        28.81212         0.48416
C         36.51689        29.54545         0.42234
C         37.76307        31.66869         0.65735
C         36.53771        30.95625         0.54883
C         37.76688        33.11976         0.65327
C         36.57139        33.86354         0.57721
C         37.81529        35.98388         0.62528
C         36.56820        35.28767         0.53890
C         37.82394        37.42058         0.67162
C         36.58776        38.12710         0.79497
C         37.81480        40.26330         0.72879
C         36.60509        39.53477         0.84602
C         37.79522        41.68604         0.62113
C         36.54871        42.38795         0.52440
C         37.77480        44.49113         0.12501
C         36.54111        43.77955         0.23715
C         37.77773        45.87620        -0.18773
C         36.53259        46.55785        -0.40368
C         37.75744        48.62327        -0.94060
C         36.52906        47.93979        -0.72287
C         37.76472        49.98233        -1.38944
C         36.49280        50.61268        -1.66943
C         40.09072        20.38149        -1.35325
C         38.94053        21.05480        -1.06520
C         40.15825        23.08809        -0.36634
C         38.91708        22.39376        -0.53219
C         40.18832        24.43484        -0.03053
C         38.95272        25.12738         0.34319
C         40.23187        27.40003         0.53774
C         38.96857        26.65034         0.60843
C         40.21842        28.77775         0.65983
C         38.98219        29.52125         0.64599
C         40.25121        31.67561         0.81176
C         39.00077        30.94710         0.70302
C         40.23935        33.08700         0.77455
C         39.01836        33.82390         0.63779
C         40.27211        35.98797         0.39186
C         39.01584        35.24792         0.59464
C         40.30070        37.44594         0.53670
C         39.05327        38.13715         0.65627
C         40.28051        40.28071         0.69786
C         39.05700        39.56132         0.69249
C         40.25793        41.70264         0.65114
C         39.01614        42.40044         0.53258
C         40.25099        44.51719         0.22968
C         39.01735        43.80891         0.31886
C         40.25164        45.89261        -0.12846
C         39.01221        46.57201        -0.34318
C         40.24215        48.60600        -0.99262
C         39.00640        47.93600        -0.75521
C         40.23890        49.96296        -1.43402
C         38.99965        50.65592        -1.62448
C         40.23618        52.65621        -2.30242
C         39.04376        52.02117        -2.05085
C         42.64361        20.38965        -1.55676
C         41.40525        20.91394        -0.97528
C         42.71840        23.10392        -0.56550
C         41.44089        22.35443        -0.47597
C         42.72263        24.46289        -0.29566
C         41.44584        25.19497        -0.14760
C         42.78690        27.33109         0.27818
C         41.46546        26.66885         0.16694
C         42.80961        28.75083         0.70462
C         41.49287        29.49958         0.89598
C         42.75680        31.62217         0.89812
C         41.51071        30.97238         0.88028
C         42.83017        33.07954         1.10672
C         41.48482        33.82849         1.03396
C         42.80301        36.02411         0.84994
C         41.58628        35.24520         0.59990
C         42.77056        37.38979         0.66979
C         41.52674        38.12465         0.55642
C         42.72604        40.28284         0.83491
C         41.53916        39.57215         0.67399
C         42.69613        41.73132         1.05985
C         41.46566        42.44954         0.71164
C         42.74983        44.53835         0.34823
C         41.48986        43.83374         0.47729
C         42.73268        45.88902        -0.13278
C         41.49480        46.57060        -0.34307
C         42.72244        48.57894        -1.08767
C         41.48588        47.92015        -0.79997
C         42.72029        49.92861        -1.55559
C         41.47896        50.62083        -1.70803
C         42.71203        52.61642        -2.43970
C         41.47588        51.97362        -2.15201
C         43.82434        21.07544        -1.44263
C         45.18222        23.13253        -0.96814
C         43.92244        22.40487        -0.92064
C         45.22383        24.53039        -0.70343
C         44.02257        25.17292        -0.03532
C         45.14992        27.45801        -0.37502
C         43.92469        26.68258        -0.08936
C         45.24134        28.86034         0.07673
C         44.03321        29.53572         0.49101
C         45.22065        31.67953         0.35626
C         43.98397        30.91729         0.65744
C         45.25881        33.18415         0.46279
C         44.04184        33.85425         0.88316
C         45.33364        36.03323         0.81238
C         44.07901        35.30917         1.27670
C         45.32568        37.42300         0.72396
C         44.04250        38.13491         0.55640
C         45.29349        40.37527         0.83590
C         44.02579        39.63553         0.60695
C         45.27865        41.73922         0.96947
C         44.00811        42.50181         1.06926
C         45.23017        44.53397         0.27859
C         43.98177        43.88726         0.57910
C         45.20639        45.86481        -0.24446
C         43.96571        46.54494        -0.43373
C         45.18993        48.52055        -1.28818
C         43.95578        47.88384        -0.92589
C         45.18368        49.87215        -1.75889
C         43.95309        50.58463        -1.87372
C         43.90487        51.94537        -2.31244
C         47.59417        23.18286        -1.38060
C         46.39575        22.48652        -1.30730
C         47.63945        24.57453        -1.18068
C         46.43549        25.24008        -0.83880
C         47.68162        27.45623        -0.53914
C         46.42115        26.72646        -0.73956
C         47.69150        28.79973        -0.24090
C         46.46968        29.50642         0.05671
C         47.78268        31.71120         0.43430
C         46.51258        30.93325         0.46537
C         47.76698        33.19839         0.38203
C         46.55900        33.89327         0.54650
C         47.77355        36.03433         0.41516
C         46.55457        35.31620         0.61214
C         47.74287        37.45366         0.48535
C         46.54206        38.17754         0.63747
C         47.74295        40.36697         0.75454
C         46.54528        39.63196         0.74969
C         47.78347        41.79466         0.82562
C         46.53065        42.54664         1.19664
C         47.69735        44.58799         0.32178
C         46.47555        43.90336         0.53352
C         47.68534        45.88698        -0.24544
C         46.43331        46.51894        -0.57113
C         47.70236        48.34862        -1.70947
C         46.41028        47.81204        -1.14394
C         47.62374        49.81021        -2.04488
C         46.45053        50.48231        -2.09730
C         50.24182        24.62352        -1.33308
C         48.92829        25.32845        -1.29412
C         50.20809        27.39090        -0.36611
C         48.94626        26.77421        -0.89181
C         50.25125        28.83849        -0.19654
C         48.97925        29.54887        -0.30520
C         50.31722        31.68380         0.17081
C         49.01076        31.01392        -0.05787
C         50.23451        33.14258        -0.09795
C         48.98847        33.88998         0.20954
C         50.25638        36.01006         0.08782
C         49.01498        35.30988         0.22217
C         50.21418        37.47695        -0.06579
C         49.02392        38.17436         0.49207
C         50.23838        40.44106         0.34913
C         49.03084        39.66170         0.66587
C         50.23097        41.80742         0.49255
C         48.98559        42.50886         0.72939
C         50.14908        44.73003         0.69141
C         48.97520        43.96116         0.63068
C         50.07151        46.13902         0.37052
C         48.90053        46.64960        -0.28231
C         49.96128        48.81417        -0.63660
C         48.88503        47.96137        -0.84211
C         51.41342        25.25467        -1.12187
C         52.74514        27.42109        -0.50554
C         51.49549        26.61781        -0.54153
C         52.71102        28.67248         0.15681
C         51.43819        29.45211         0.53604
C         52.73058        31.81878         0.40112
C         51.49747        31.00886         0.35507
C         52.77166        33.18599         0.05045
C         51.52461        33.91015        -0.23098
C         52.74002        36.06462        -0.06372
C         51.50857        35.37223        -0.04654
C         52.76518        37.55634         0.16108
C         51.47386        38.24137        -0.25492
C         52.74031        40.48206        -0.20333
C         51.44023        39.74255        -0.14837
C         52.77998        41.86367         0.30716
C         51.51212        42.54168         0.65546
C         52.80467        44.73030         0.91164
C         51.46190        44.04651         0.95372
C         53.03809        45.99212         1.55546
C         51.07612        47.10409         0.67074
C         51.01935        48.40914         0.19111
C         55.18166        27.61111        -0.76227
C         53.98719        26.91501        -0.95142
C         55.19860        28.78013         0.02994
C         53.95351        29.16771         0.56627
C         55.22641        31.82670         0.48819
C         53.97626        31.28427         0.81454
C         55.24293        33.22201         0.13333
C         53.99609        33.91804         0.03569
C         55.21306        36.07157        -0.22052
C         53.98034        35.35662        -0.11487
C         55.21921        37.53495        -0.32244
C         54.02702        38.24631        -0.30613
C         55.34666        40.46777        -0.16798
C         54.02204        39.71709        -0.40923
C         55.28291        41.82511         0.44635
C         54.00298        42.53099         0.43945
C         55.66547        44.52349         1.79347
C         53.93783        43.94627         0.65552
C         55.26962        45.56081         2.66226
C         54.13463        46.32788         2.39374
C         56.37827        29.60347         0.25281
C         56.39138        30.95653         0.47924
C         56.44139        33.95509        -0.06465
C         56.41890        35.32874        -0.23650
C         56.47020        38.26803        -0.25766
C         56.53388        39.60816        -0.04224
C         56.35291        42.22629         1.25501
C         56.43962        43.38906         2.05292
O         41.29165        26.20704        -1.25452
O         44.05907        38.92682        -0.69550
O         31.14973        42.36320         2.39383
O         50.79299        33.47018        -1.42555
O         47.26640        31.17726         1.70936
O         51.48230        43.09025         2.05372
O         35.05730        32.40455         1.87532
O         42.22792        28.92982         2.04122
O         29.65095        33.82667        -1.63357
O         41.04862        35.45832        -0.74381
O         49.30499        38.75190         1.82424
O         27.92010        41.15214         2.75737
O         34.73443        39.88163         2.35936
O         43.29564        42.22416         2.32365
O         38.97882        25.67751         1.71624
O         41.51810        21.23514         0.46302
O         45.11385        32.46681        -0.86850
O         45.56430        27.31676        -1.78760
O         42.08863        33.54920         2.32605
O         52.04659        46.92257         1.65911
O         53.95529        30.12236         1.58885
O         50.80996        26.64950         0.78311
O         50.72030        37.82191        -1.42037
O         54.76371        40.32312        -1.50490
O         48.91331        30.56097        -1.44767
O         55.14187        44.63569         0.47622
O         33.56862        45.65891        -2.03520
O         48.94488        26.40442        -2.31542
O         33.13449        27.19033         1.39592
O         51.88175        40.37490        -1.40517
O         34.30746        35.53895        -1.66383
H         34.06649        36.46721        -1.87464
O         47.91546        47.64348        -2.98836
H         47.14738        47.84525        -3.56370
O         33.12280        28.68057        -1.92682
H         33.12852        29.57488        -2.33101
O         33.09948        33.16817        -1.84135
H         33.45097        34.06836        -2.08539
O         46.60925        42.81110         2.63939
H         46.60177        41.94706         3.10295
O         44.12229        35.37471         2.74509
H         43.40311        34.78064         3.07127
O         51.17368        29.22764         1.94989
H         51.10995        28.25053         2.06846
O         44.28178        24.93962         1.41559
H         44.29275        23.96812         1.55933
O         35.02788        49.03952         0.76864
H         35.79765        49.57803         1.05095
O         52.76191        37.76165         1.62799
H         53.48637        37.21925         2.00707
H         26.96862        27.00928        -1.30701
H         25.73907        29.14314        -1.14277
H         25.71550        31.57329        -0.70464
H         25.81124        33.16783         0.60352
H         25.85042        35.48527         1.33213
H         25.94573        37.16924         2.14007
H         26.02334        39.49902         2.98724
H         25.79575        42.54482         2.20003
H         25.72817        44.55666         0.69046
H         26.89067        46.21852        -0.61534
H         29.05562        25.72390        -1.08652
H         28.99082        47.26743        -1.36685
H         32.66979        23.50025        -0.09307
H         30.61538        24.71774        -0.42200
H         32.70284        49.53256        -1.47213
H         30.64299        48.27556        -1.45654
H         34.30047        22.59269        -0.44079
H         34.37784        50.55623        -1.62121
H         36.37753        21.38929        -0.76048
H         36.48298        51.59978        -2.15217
H         40.04631        19.41613        -1.87868
H         37.98798        20.58044        -1.33779
H         40.24312        53.70552        -2.63129
H         38.11018        52.58429        -2.17944
H         42.61198        19.43124        -2.09482
H         42.70182        53.66295        -2.77719
H         44.72625        20.60762        -1.86054
H         44.83488        52.47647        -2.55346
H         48.51070        22.63087        -1.62876
H         46.41267        21.40496        -1.49367
H         48.54152        50.31697        -2.37643
H         46.46589        51.53350        -2.41704
H         50.25936        23.57944        -1.67921
H         49.96782        49.83100        -1.04936
H         52.35502        24.70713        -1.27898
H         51.81007        49.11681         0.47074
H         56.11353        27.22902        -1.20229
H         54.01121        25.95882        -1.49230
H         55.84109        45.75435         3.58150
H         53.96133        47.21254         3.02486
H         57.35214        29.10755         0.11241
H         57.37937        31.44256         0.50667
H         57.40788        33.43340        -0.04889
H         57.37930        35.84345        -0.36969
H         57.41148        37.70336        -0.22798
H         57.51533        40.06505         0.14813
H         57.15614        41.49039         1.41114
H         57.10242        43.37434         2.93043
