         640
 CSIRO Nanostructure Databank - Neutral Graphene Oxide Data Set
C         22.98828        27.37033         0.89905
C         22.97621        28.74449         0.89304
C         22.97137        31.67692         0.88868
C         22.97031        33.05426         0.83937
C         22.96691        35.97098         0.70414
C         22.96197        37.35968         0.57819
C         22.91529        40.31445         0.59878
C         22.93519        41.66236         0.63177
C         22.91986        44.60573         0.55972
C         22.96760        45.95717         0.76921
C         25.40717        24.53676         0.59681
C         24.22384        25.22997         0.74523
C         25.44264        27.36065         0.80537
C         24.21754        26.65091         0.82757
C         25.43135        28.79971         0.81924
C         24.18653        29.49599         0.83488
C         25.40439        31.65085         0.66125
C         24.18094        30.93702         0.80021
C         25.40331        33.08266         0.59375
C         24.17235        33.79040         0.68776
C         25.39398        35.94435         0.46490
C         24.16601        35.23656         0.62485
C         25.38819        37.37634         0.39677
C         24.14667        38.08067         0.42782
C         25.37449        40.30552         0.25868
C         24.08920        39.54488         0.04908
C         25.37515        41.67427         0.18048
C         24.12871        42.42786         0.29953
C         25.36839        44.59123         0.18943
C         24.11014        43.82232         0.33413
C         25.39888        45.98075         0.67830
C         24.22498        46.66458         0.86521
C         25.40755        48.80810         0.85527
C         24.28259        48.10973         1.10611
C         27.92596        23.07822         0.15870
C         27.90341        24.47414         0.41652
C         26.65604        25.20815         0.54249
C         27.91038        27.33088         0.65158
C         26.68102        26.63363         0.67681
C         27.94842        28.79847         1.02824
C         26.65125        29.52910         0.77402
C         27.87274        31.66671         0.44694
C         26.64698        30.93499         0.63090
C         27.86899        33.08633         0.32170
C         26.63181        33.80281         0.43228
C         27.85520        35.94684         0.21205
C         26.62923        35.22946         0.36822
C         27.84956        37.37967         0.21921
C         26.62385        38.07849         0.30700
C         27.91303        40.25514         0.23846
C         26.63439        39.55264         0.61113
C         27.92421        41.64880         0.16314
C         26.66067        42.36801        -0.25629
C         27.91605        44.57224         0.37812
C         26.66825        43.87915        -0.03320
C         27.95115        45.93226         0.58185
C         26.70199        46.70701         0.91986
C         27.96287        48.83629         0.53253
C         26.64694        48.10784         0.31317
C         28.00915        50.22641         0.48791
C         30.36253        22.99308         0.02674
C         29.13123        22.39694        -0.12466
C         30.41976        24.37233         0.63527
C         29.13322        25.17269         0.45808
C         30.31083        27.31995         0.14245
C         29.13411        26.60679         0.47568
C         30.25145        28.76455        -0.05627
C         29.11320        29.53280         0.42957
C         30.31500        31.67013         0.08549
C         29.10300        30.94086         0.30373
C         30.31758        33.07387        -0.02636
C         29.08271        33.79811         0.07983
C         30.29755        35.95524        -0.13464
C         29.08896        35.23823         0.04085
C         30.31901        37.37351        -0.00503
C         29.10326        38.09089         0.16129
C         30.37257        40.22905         0.11886
C         29.13361        39.52605         0.20548
C         30.38366        41.65104         0.21512
C         29.15461        42.34189         0.23531
C         30.45315        44.51391         0.70011
C         29.13550        43.77839         0.55753
C         30.43237        45.98216         0.61161
C         29.20542        46.66261         0.65261
C         30.42967        48.80885         0.62477
C         29.18511        48.10459         0.61163
C         30.44541        50.24070         0.58677
C         29.22567        50.91970         0.53524
C         32.95402        20.24605         0.31869
C         31.75793        20.87707         0.29341
C         32.90348        23.01406        -0.22797
C         31.61543        22.23376        -0.35850
C         32.89195        24.41588        -0.21043
C         31.68122        25.15167         0.24987
C         32.75798        27.34022        -0.59475
C         31.59895        26.62908         0.03021
C         32.82542        28.79436        -0.39932
C         31.55481        29.52785        -0.31669
C         32.82483        31.66528        -0.33149
C         31.62233        30.93789         0.21372
C         32.75779        33.07303        -0.45811
C         31.55207        33.77077        -0.27971
C         32.83330        35.91643        -0.32491
C         31.51948        35.23310        -0.65307
C         32.81938        37.33256         0.04828
C         31.56521        38.09655        -0.01357
C         32.85356        40.22640        -0.15847
C         31.60537        39.49769         0.02795
C         32.84628        41.68075        -0.14709
C         31.64154        42.38326         0.17214
C         32.88967        44.51728         0.21607
C         31.68072        43.78153         0.34473
C         32.92220        45.94203         0.42358
C         31.67820        46.68006         0.59167
C         32.91932        48.81643         0.86689
C         31.65930        48.08460         0.66535
C         32.94655        50.27758         0.68573
C         31.71768        50.96834         0.56578
C         32.94778        53.06056         0.47729
C         31.74536        52.37046         0.43429
C         35.53511        18.78874         0.05086
C         35.41491        20.21259        -0.23628
C         34.18791        20.89230        -0.10979
C         35.35458        23.04269        -0.47375
C         34.13771        22.31665        -0.31285
C         35.32456        24.46449        -0.54698
C         34.08885        25.13654        -0.42516
C         35.30943        27.34982        -0.61324
C         34.05475        26.58589        -0.70137
C         35.27819        28.75844        -0.52524
C         34.02925        29.48045        -0.44876
C         35.26563        31.61183        -0.67585
C         34.03455        30.94083        -0.48591
C         35.28092        33.05316        -0.96819
C         33.97474        33.81785        -0.86583
C         35.30843        35.95214        -0.59756
C         34.02843        35.26820        -0.55443
C         35.35195        37.36522        -0.51854
C         34.14428        38.09988        -0.09400
C         35.24979        40.21502        -0.84339
C         34.05028        39.53840        -0.33976
C         35.24013        41.73723        -0.84810
C         34.03633        42.41548        -0.34281
C         35.31830        44.53863        -0.27811
C         34.08500        43.81989        -0.12036
C         35.35211        45.94309        -0.04492
C         34.15494        46.61830         0.34048
C         35.44975        48.81750         0.41573
C         34.22831        48.04507         0.70531
C         35.45179        50.22976         0.55727
C         34.18927        50.96624         0.67331
C         35.42745        53.15445         0.75461
C         34.17070        52.38553         0.61286
C         35.49108        54.58233         0.41990
C         37.76789        18.70666        -1.03394
C         36.64878        18.09000        -0.24028
C         37.82973        20.21807        -0.86023
C         36.61044        20.92267        -0.60169
C         37.77943        23.10401        -0.87057
C         36.59057        22.35322        -0.64044
C         37.76900        24.49934        -0.86063
C         36.54639        25.20559        -0.70274
C         37.77220        27.35567        -0.53920
C         36.53112        26.63293        -0.64270
C         37.71387        28.76833        -0.32008
C         36.51097        29.48307        -0.40931
C         37.71388        31.65514        -0.58425
C         36.50248        30.93063        -0.50938
C         37.75599        33.06991        -0.81565
C         36.55104        33.79337        -0.88751
C         37.75578        35.93728        -0.89289
C         36.53451        35.23264        -0.82528
C         37.78329        37.35833        -0.89389
C         36.55163        38.07887        -0.75756
C         37.73065        40.24285        -0.99367
C         36.55670        39.52166        -0.83075
C         37.75186        41.69535        -1.00080
C         36.53249        42.44420        -0.84583
C         37.71825        44.61092        -0.92029
C         36.50948        43.83315        -0.65429
C         37.77836        46.02253        -0.51931
C         36.59275        46.68371        -0.14715
C         37.85512        48.82298        -0.08868
C         36.62706        48.11159         0.06733
C         37.88012        50.23990         0.09288
C         36.68339        50.92575         0.41522
C         37.96155        53.12476         0.29947
C         36.74498        52.37835         0.66218
C         37.94753        54.53171         0.25956
C         36.67838        55.22480         0.28430
C         40.59686        16.26527        -0.15026
C         39.39530        16.97351        -0.03204
C         40.28157        18.76762        -1.52480
C         39.12662        18.09083        -0.80425
C         40.29300        20.24896        -1.20187
C         39.03748        20.90366        -1.03501
C         40.24110        23.03581        -0.43819
C         39.07270        22.40692        -1.20177
C         40.29113        24.53041        -0.66608
C         39.04832        25.26235        -1.13671
C         40.24034        27.39304        -0.42663
C         39.00637        26.68928        -0.63482
C         40.22886        28.75933        -0.15491
C         38.96389        29.47548        -0.06344
C         40.25474        31.59302        -0.75090
C         38.96929        30.98912        -0.23786
C         40.23865        33.09903        -0.68248
C         39.02770        33.75954        -0.83678
C         40.27821        35.94670        -0.82874
C         39.02892        35.20895        -1.23537
C         40.25947        37.36366        -0.85429
C         39.01927        38.05755        -0.98731
C         40.26569        40.23947        -0.85457
C         39.02178        39.52226        -1.32238
C         40.24646        41.65181        -0.81304
C         39.00077        42.36182        -0.97210
C         40.28021        44.54658        -0.79255
C         39.03959        43.82183        -1.08242
C         40.25993        45.96532        -0.69254
C         39.03059        46.70056        -0.56394
C         40.30665        48.81830        -0.40642
C         39.06728        48.11363        -0.35789
C         40.33100        50.24975        -0.27345
C         39.12719        50.95842        -0.04077
C         40.37414        53.09855        -0.14987
C         39.15433        52.39201         0.03506
C         40.38874        54.52781        -0.11574
C         39.17717        55.25388         0.06052
C         40.41419        57.35531        -0.10382
C         39.22788        56.67960         0.06468
C         42.85650        15.92087        -1.08342
C         41.52741        16.56761        -1.28572
C         42.79668        18.75906        -1.23769
C         41.59963        18.06930        -1.30093
C         42.77711        20.23900        -1.36748
C         41.50258        20.95965        -1.13470
C         42.74711        23.02511        -0.52924
C         41.55074        22.34454        -0.77621
C         42.67180        24.43247         0.04878
C         41.45440        25.20755        -0.41788
C         42.70395        27.33788        -0.16318
C         41.49284        26.65580        -0.37211
C         42.72851        28.75845        -0.01429
C         41.45995        29.50635         0.27721
C         42.68509        31.63848        -0.21420
C         41.50071        30.94838        -0.20354
C         42.71333        33.09176        -0.43741
C         41.48739        33.80131        -0.61491
C         42.72526        35.95167        -0.52674
C         41.49327        35.23818        -0.65926
C         42.71732        37.38031        -0.54272
C         41.49206        38.08820        -0.70324
C         42.70791        40.23460        -0.50309
C         41.47988        39.52446        -0.68521
C         42.70215        41.66008        -0.50695
C         41.47480        42.37338        -0.65291
C         42.71795        44.51469        -0.53767
C         41.47847        43.81023        -0.64751
C         42.72115        45.93662        -0.58013
C         41.50051        46.66936        -0.61434
C         42.77409        48.79275        -0.60857
C         41.52235        48.09614        -0.54907
C         42.80103        50.24483        -0.58305
C         41.57516        50.95619        -0.38218
C         42.83108        53.08162        -0.44858
C         41.59486        52.37711        -0.33567
C         42.85330        54.51038        -0.42284
C         41.62606        55.22890        -0.27460
C         42.87485        57.33387        -0.44044
C         41.63890        56.64969        -0.27471
C         44.00973        16.63185        -1.00018
C         45.28488        18.78586        -0.95151
C         44.04885        18.06925        -1.09164
C         45.30942        20.20287        -0.88341
C         44.08050        20.98494        -1.13272
C         45.22562        23.01776        -0.31940
C         44.01560        22.37960        -0.64503
C         45.21606        24.43259         0.23474
C         43.96314        25.20780        -0.08886
C         45.18577        27.36166        -0.06201
C         43.96159        26.59662        -0.12436
C         45.17746        28.75396         0.01963
C         43.92541        29.47124         0.05430
C         45.13967        31.60101         0.07398
C         43.93202        30.91736         0.03044
C         45.19288        33.03387        -0.30767
C         43.93022        33.79599        -0.40308
C         45.18557        35.95559        -0.34276
C         43.96551        35.23374        -0.43627
C         45.18317        37.37462        -0.28535
C         43.94962        38.09543        -0.38968
C         45.17562        40.23392        -0.22644
C         43.94506        39.52148        -0.36931
C         45.17398        41.66218        -0.21948
C         43.94233        42.36963        -0.37397
C         45.17311        44.50957        -0.31984
C         43.94056        43.79321        -0.41452
C         45.16604        45.91941        -0.39686
C         43.96423        46.63954        -0.53417
C         45.24292        48.75163        -0.83606
C         43.97564        48.07355        -0.62723
C         45.25577        50.22201        -1.21119
C         44.01561        50.94069        -0.70992
C         45.29223        53.06993        -0.59191
C         44.05183        52.35853        -0.58934
C         45.31971        54.46860        -0.60781
C         44.08418        55.21494        -0.55617
C         44.05638        56.63867        -0.57527
C         47.71262        18.76790        -0.59395
C         46.53629        18.09854        -0.80661
C         47.76769        20.19442        -0.50140
C         46.51584        20.90892        -0.63881
C         47.71063        23.07244        -0.41324
C         46.45517        22.32127        -0.43425
C         47.66931        24.50961        -0.08765
C         46.49553        25.18422        -0.03384
C         47.68338        27.41711         0.21600
C         46.49058        26.66820        -0.31059
C         47.66236        28.78748         0.33496
C         46.40487        29.50790         0.17784
C         47.57976        31.65874         0.73144
C         46.37673        30.89451         0.23757
C         47.68849        33.09910         0.30084
C         46.50772        33.76495        -0.29022
C         47.64831        35.99168         0.19006
C         46.53366        35.27517        -0.52571
C         47.64299        37.37445         0.17439
C         46.41604        38.09896        -0.11649
C         47.64227        40.23567         0.09484
C         46.40873        39.51158        -0.08403
C         47.65126        41.65507         0.07777
C         46.40617        42.38477        -0.07737
C         47.64504        44.53747        -0.10595
C         46.40457        43.79662        -0.13032
C         47.67936        45.89508        -0.33359
C         46.42423        46.69346        -0.13155
C         47.68126        48.72272        -1.18843
C         46.40726        48.05001        -0.77320
C         47.77848        50.09838        -0.51680
C         46.52917        50.88412        -0.75395
C         47.84040        53.00704        -0.78825
C         46.56913        52.30792        -0.32412
C         47.77701        54.44144        -0.83666
C         46.60389        55.13122        -0.69848
C         50.21779        20.21714         0.07431
C         48.99540        20.86877        -0.26487
C         50.28613        23.05349        -0.04139
C         49.04915        22.33165        -0.38706
C         50.28123        24.55307        -0.23632
C         48.95768        25.19827         0.15460
C         50.22429        27.46191         0.08824
C         48.95428        26.67097         0.35927
C         50.13545        28.75629         0.89598
C         48.88422        29.53981         0.57958
C         50.10908        31.66033         0.83562
C         48.88394        30.91197         0.63589
C         50.07978        33.07282         0.88167
C         48.84566        33.78003         0.60108
C         50.11126        35.98302         0.73401
C         48.78824        35.26785         0.85365
C         50.09473        37.40635         0.65969
C         48.86727        38.10809         0.44095
C         50.09520        40.24117         0.46387
C         48.86534        39.52197         0.32463
C         50.10107        41.67216         0.36802
C         48.88319        42.35448         0.20407
C         50.16725        44.51580        -0.03953
C         48.88558        43.84712         0.38086
C         50.18617        45.87471        -0.41147
C         48.92912        46.60317        -0.55393
C         50.15672        48.63989        -1.29520
C         48.92389        47.92557        -0.92866
C         50.15568        50.12225        -1.31279
C         49.03293        50.83382        -0.98274
C         50.28276        52.94255        -1.29675
C         49.01400        52.28903        -1.00785
C         51.39111        20.91210         0.26802
C         52.73736        23.05716         0.34262
C         51.45612        22.35060         0.19931
C         52.70449        24.46974         0.75505
C         51.39650        25.24503         0.52984
C         52.64777        27.37974         0.76127
C         51.46776        26.69841         0.47813
C         52.64284        28.83414         0.79898
C         51.40155        29.55626         0.82246
C         52.59899        31.66944         1.31852
C         51.34693        30.93929         0.92826
C         52.54561        33.14792         1.04537
C         51.32532        33.82227         0.96846
C         52.55820        35.99287         0.97964
C         51.31533        35.27449         0.88922
C         52.56421        37.41988         0.97953
C         51.31920        38.13508         0.81530
C         52.50908        40.32120         1.05140
C         51.29459        39.54517         0.75040
C         52.56491        41.74150         0.67429
C         51.35563        42.40148         0.40930
C         52.62316        44.50695         0.07410
C         51.37795        43.81289         0.13281
C         52.63842        45.89437        -0.25283
C         51.42363        46.54036        -0.57662
C         52.69654        48.71760        -0.92101
C         51.46611        47.91705        -1.09894
C         52.68340        50.09663        -1.18862
C         51.44025        50.76954        -1.79991
C         51.40205        52.26265        -1.61830
C         55.17460        23.20466         0.34523
C         53.96642        22.47673         0.12636
C         55.18553        24.54597         0.67961
C         53.94439        25.26054         0.79814
C         55.14225        27.42322         0.74830
C         53.90419        26.66503         0.86093
C         55.09891        28.84852         0.60293
C         53.85720        29.54452         0.72033
C         55.00366        31.71797         0.64782
C         53.84575        30.98893         0.80505
C         54.99902        33.12461         0.93857
C         53.79707        33.84769         1.06631
C         55.01613        36.00807         1.14632
C         53.79803        35.29330         1.09541
C         55.03777        37.42549         1.06650
C         53.80078        38.11387         1.05225
C         55.08107        40.30244         0.97580
C         53.82389        39.57373         1.19923
C         55.06039        41.70943         0.80084
C         53.81897        42.42076         0.63620
C         55.07744        44.53609         0.30584
C         53.84542        43.81764         0.33596
C         55.07989        45.95053         0.05482
C         53.87626        46.62828        -0.24724
C         55.09900        48.78350        -0.39539
C         53.88572        48.04636        -0.51027
C         55.05899        50.17628        -0.64053
C         53.88917        50.81218        -1.02525
C         57.73683        24.63867         0.64510
C         56.44920        25.29082         1.07122
C         57.56920        27.48457         0.40865
C         56.37885        26.75952         0.70189
C         57.50851        28.90304         0.20828
C         56.30174        29.57592         0.35475
C         57.54300        31.75550         0.48261
C         56.24708        31.06868         0.08287
C         57.54999        33.10238         0.89983
C         56.27821        33.77935         1.21241
C         57.55535        36.00768         1.19761
C         56.27984        35.29703         1.36678
C         57.53693        37.43102         1.10938
C         56.29154        38.14703         1.07407
C         57.54561        40.29023         0.92814
C         56.30008        39.57144         0.98077
C         57.54014        41.71762         0.82779
C         56.29926        42.42665         0.71675
C         57.54295        44.56065         0.52925
C         56.30318        43.83712         0.52193
C         57.53652        45.98217         0.36299
C         56.31591        46.68308         0.11287
C         57.56880        48.78538         0.02438
C         56.33001        48.09058        -0.07509
C         58.84717        25.36942         0.36243
C         60.01131        27.54883         0.02416
C         58.81223        26.80170         0.27509
C         60.00050        28.89370        -0.17226
C         58.71863        29.66916        -0.28904
C         59.96176        31.74318         0.56545
C         58.75770        31.07469         0.29038
C         59.96840        33.08864         0.91805
C         58.76699        33.81419         1.05462
C         59.97518        36.01320         1.16763
C         58.76301        35.27840         1.18959
C         59.97743        37.39491         1.12801
C         58.77481        38.13940         1.07427
C         59.98600        40.32298         0.97371
C         58.77625        39.58318         0.99179
C         59.98361        41.70015         0.89721
C         58.77364        42.43420         0.81698
C         59.98049        44.62901         0.77360
C         58.77242        43.87432         0.71155
C         59.97607        45.99857         0.64844
C         58.76067        46.70431         0.42805
C         58.74697        48.11655         0.26917
O         50.86454        48.03167        -2.45473
O         53.07147        40.04701         2.38244
O         33.64316        37.66674         1.21710
O         34.48606        33.43610        -2.17792
O         33.21262        26.87462        -1.90072
O         35.00721        40.97085        -2.08277
O         32.04548        26.06593         1.35690
O         43.54246        20.76844        -2.49519
O         38.95110        30.42638         1.10417
O         36.17981        52.78622         1.95559
O         33.67453        48.34260         2.03410
O         38.30707        44.35295        -2.23656
O         30.67524        29.25988        -1.41431
O         51.72955        24.69406         1.82876
O         26.00483        44.54647        -1.17115
O         29.75635        44.00315         1.88901
O         49.00081        25.77024         1.51122
O         46.05379        33.10246        -1.53850
O         56.27407        34.41444         2.54512
O         48.48753        22.85851        -1.66908
O         50.26668        27.77215        -1.32132
H         50.39078        26.91992        -1.80293
O         48.82017        44.05000         1.85386
H         49.58603        43.57616         2.24497
O         31.86316        30.77069         1.65821
H         31.87377        31.66244         2.06573
O         46.68675        52.30618         1.17362
H         46.79576        53.24324         1.44740
O         40.24384        31.25639        -2.18509
H         40.86545        31.86145        -2.64311
O         26.48713        47.96600        -1.12024
H         26.44367        48.86123        -1.51471
O         39.06695        35.18985        -2.72292
H         39.03426        36.12477        -3.02273
O         46.41736        46.97238         1.32419
H         46.66679        46.14097         1.78316
O         47.64197        48.97509        -2.61710
H         47.73846        48.12184        -3.08786
O         52.65603        31.54908         2.79811
H         53.44834        32.04631         3.09664
O         56.45990        25.24555         2.54703
H         57.22450        25.78082         2.84797
O         58.50865        29.86963        -1.74564
H         58.47782        28.97907        -2.15667
O         23.89685        39.51062        -1.41600
H         24.04813        40.42020        -1.75249
O         51.54197        50.54111        -3.23578
H         51.38646        49.57352        -3.37290
O         46.85085        35.47592        -1.94637
H         46.44392        34.71350        -2.42464
O         26.65743        42.16594        -1.70740
H         26.25379        42.97832        -2.09988
O         41.40488        29.57173         1.75092
H         40.53242        29.98410         1.97073
O         42.46335        24.22584         1.51411
H         42.33334        25.11637         1.90938
O         39.10299        39.56686        -2.80970
H         38.97120        40.50253        -3.07715
O         50.00844        28.34166         2.28802
H         50.21799        29.11135         2.85756
O         39.14731        25.37011        -2.59840
H         40.05164        25.67859        -2.81746
O         40.94362        16.09318        -2.57077
H         41.69168        15.91872        -3.18070
O         37.41631        18.48060        -2.43977
H         38.24004        18.66520        -2.96241
O         48.47010        35.34352         2.30299
H         49.14224        34.80945         2.77881
O         39.36118        22.64186        -2.60672
H         38.58837        22.35361        -3.13495
O         45.18579        50.33536        -2.67658
H         44.39757        49.83210        -2.97066
O         26.80184        46.92184         2.36282
H         27.03287        46.06957         2.78833
O         47.33104        31.76567         2.19368
H         47.27849        30.85146         2.54801
O         40.02607        18.64485        -2.96850
H         40.20272        17.68686        -3.16984
O         50.49251        24.83368        -1.65279
H         49.84302        24.26660        -2.13930
O         30.51296        24.14146         2.08369
H         30.92850        24.95552         2.45758
O         26.63501        39.59293         2.10057
H         27.44615        39.13119         2.40471
O         45.20595        24.26406         1.69999
H         44.29204        23.97725         1.94562
O         31.39011        35.28825        -2.12163
H         32.11224        34.74294        -2.50380
O         46.66416        26.71532        -1.79035
H         46.63341        27.65908        -2.05968
O         47.92145        49.87001         0.91453
H         47.58190        50.67435         1.37765
O         28.14241        28.83001         2.50538
H         27.35803        28.40076         2.90910
O         40.00869        22.83038         0.98157
H         40.78780        23.21021         1.45738
O         31.46470        21.96865        -1.79969
H         32.24163        21.44141        -2.08428
O         56.13634        31.23792        -1.36587
H         56.95028        30.82852        -1.76005
H         22.04336        26.80892         0.93131
H         22.00892        29.26302         0.92125
H         22.01182        31.15677         1.00508
H         22.00845        33.57724         0.91647
H         22.00427        35.45763         0.82339
H         21.99305        37.87620         0.57327
H         21.99170        39.78550         0.87313
H         22.03852        42.20264         0.96637
H         21.94055        44.10805         0.54574
H         22.03435        46.52164         0.90893
H         25.37014        23.44140         0.52808
H         23.26743        24.68878         0.78020
H         25.40410        49.90185         0.97531
H         23.36620        48.62192         1.43723
H         26.98564        22.51964         0.06326
H         27.08068        50.80915         0.40734
H         29.07316        21.36258        -0.49459
H         29.19340        52.01630         0.50977
H         33.00448        19.22107         0.71384
H         30.85288        20.35862         0.64304
H         32.92539        54.15656         0.42168
H         30.81656        52.94469         0.32907
H         34.69623        18.27920         0.54637
H         34.56010        55.14827         0.27849
H         36.68944        17.01312        -0.02080
H         36.66332        56.30324         0.07682
H         40.88277        15.52841         0.61487
H         38.63903        16.59483         0.67359
H         40.42859        58.45482        -0.09629
H         38.30822        57.26025         0.21494
H         42.88285        14.82302        -1.01404
H         42.87849        58.43344        -0.45162
H         44.94747        16.07901        -0.85360
H         44.99028        57.20397        -0.69406
H         48.64183        18.18734        -0.51557
H         46.57102        17.00424        -0.88411
H         48.69951        55.01440        -1.00631
H         46.63888        56.22807        -0.73336
H         50.23653        19.12270         0.17275
H         50.33260        54.03992        -1.24875
H         52.30671        20.35479         0.50994
H         52.30837        52.83268        -1.86938
H         56.11968        22.65581         0.23512
H         54.03922        21.42462        -0.18395
H         55.97209        50.77912        -0.54843
H         53.92064        51.89203        -1.22187
H         57.82395        23.54634         0.73146
H         57.59703        49.87563        -0.10258
H         59.80460        24.86256         0.16627
H         60.96563        27.00051         0.00035
H         60.94292        29.40973        -0.40378
H         60.92239        31.22156         0.45868
H         60.93756        33.58188         1.06895
H         60.94006        35.48989         1.18114
H         60.94586        37.91179         1.11937
H         60.95188        39.80412         1.02524
H         60.94838        42.22353         0.88575
H         60.93881        44.11829         0.93494
H         60.91823        46.56242         0.70672
H         59.69429        48.67096         0.33378
