         244
 CSIRO Nanostructure Databank - Neutral Graphene Oxide Data Set
C          1.20934         2.13015        -0.36032
C          1.19906         3.52283        -0.47761
C          2.40795         1.42777        -0.30010
C          2.40645         4.25214        -0.55005
C          1.25424         6.46217        -0.81532
C          1.23790         7.86589        -0.68533
C          2.41807         5.70564        -0.71485
C          2.38517         8.61771        -0.39643
C          1.15296        10.74554         0.00606
C          1.14044        12.12959         0.11251
C          2.34494         9.98900        -0.00254
C          2.32686        12.90037         0.25422
C          1.21376        15.04431        -0.41267
C          1.24354        16.38548        -0.62695
C          2.35040        14.29311         0.06887
C          2.39927        17.27156        -0.21223
C          2.55381        18.50400        -1.07091
C          3.64590         2.11521        -0.35299
C          3.62829         3.53288        -0.48700
C          4.87632         1.37850        -0.22511
C          4.91272         4.24785        -0.58257
C          3.70260         6.42456        -0.74732
C          3.69749         7.96003        -0.54925
C          4.94184         5.71897        -0.40447
C          4.92542         8.58839        -0.00416
C          3.58839        10.65218         0.43328
C          3.56626        12.16471         0.62503
C          4.88909         9.95886         0.33855
C          4.88073        12.92770         0.71758
C          3.64279        15.00479         0.14486
C          3.69512        16.47204        -0.09393
C          4.89105        14.16490        -0.23468
C          4.95970        16.94863        -0.82357
C          3.74985        19.08296        -1.30620
C          5.00518        18.45279        -0.92336
C          6.12164         1.99807        -0.17034
C          6.17428         3.46138        -0.38225
C          7.35563         1.31493         0.00155
C          7.38464         4.17607         0.04915
C          6.09257         6.40575        -0.04797
C          6.10336         7.82487         0.15600
C          7.29354         5.63411         0.46397
C          7.30351         8.48275         0.82064
C          6.11851        10.68908         0.52996
C          6.12825        12.10557         0.56411
C          7.34995         9.97899         0.62530
C          7.36080        12.81133         0.56284
C          6.17309        14.96197         0.04897
C          6.17167        16.31653        -0.18697
C          7.37542        14.24945         0.37237
C          7.35317        17.14594         0.23642
C          6.16799        19.15268        -0.78698
C          7.40945        18.52704        -0.38730
C          8.58643         2.00671         0.06977
C          8.54740         3.46724         0.15431
C          9.82314         1.31778         0.17273
C          9.82854         4.19851         0.25749
C          8.61546         6.34744         0.12434
C          8.62072         7.81649         0.48034
C          9.80320         5.61302         0.79175
C          9.80808         8.47135         0.57278
C          8.56620        10.67403         0.73764
C          8.57561        12.08152         0.67913
C          9.85723         9.91703         1.03491
C          9.88301        12.81476         0.84248
C          8.63032        14.93332         0.21246
C          8.64678        16.37988         0.05386
C          9.82858        14.22134         0.29891
C          9.82169        17.08919         0.01288
C          8.59805        19.20444        -0.40696
C          9.84681        18.55173        -0.04134
C         11.08377         1.96041         0.29773
C         11.10104         3.44399         0.29434
C         12.30945         1.29304         0.34073
C         12.29740         4.16663         0.81147
C         11.10514         6.34103         0.57064
C         11.08763         7.75065         0.47032
C         12.31840         5.64025         0.65577
C         12.31297         8.43890         0.39663
C         11.07559        10.61652         0.50122
C         11.03166        12.06327         0.15179
C         12.30935         9.90138         0.05189
C         12.35715        12.76155         0.41942
C         11.09948        14.83739        -0.03194
C         11.11180        16.40304        -0.12841
C         12.36239        14.16983         0.32560
C         12.33640        17.08115         0.23121
C         11.02037        19.22451         0.15285
C         12.26200        18.52830         0.65294
C         13.57713         1.98815         0.37550
C         13.59067         3.41687         0.80790
C         14.74855         1.39533        -0.02162
C         14.82318         4.21069         0.69100
C         13.55303         6.32808         0.60909
C         13.54305         7.74348         0.47703
C         14.81079         5.59562         0.63262
C         14.79149         8.47731         0.47851
C         13.57601        10.62591         0.48567
C         13.54310        12.03432         0.61736
C         14.77707         9.88723         0.57857
C         14.78375        12.79086         1.04845
C         13.56199        14.92355         0.40080
C         13.54756        16.37070         0.31875
C         14.79321        14.24614         0.62758
C         14.77733        17.09031         0.41741
C         13.54636        19.23483         0.33790
C         14.76101        18.53850         0.32771
C         16.00055         2.20590        -0.25357
C         16.08813         3.40942         0.70310
C         17.28397         1.40762        -0.22090
C         17.30688         4.23268         0.40301
C         16.04618         6.34454         0.47436
C         16.03032         7.74646         0.41693
C         17.29459         5.61650         0.33599
C         17.26588         8.47744         0.17225
C         16.08651        10.57808         0.90462
C         16.05692        12.06888         0.67823
C         17.27415         9.90055         0.25406
C         17.22080        12.76677         0.44059
C         16.00361        14.94492         0.62057
C         16.01449        16.39428         0.52110
C         17.25048        14.22098         0.53216
C         17.23348        17.09584         0.54569
C         16.00298        19.21386         0.23492
C         17.24081        18.52489         0.35536
C         18.49834         2.02739        -0.02974
C         18.54778         3.47072         0.30942
C         19.75118         1.36899        -0.28107
C         19.81434         4.24955        -0.10446
C         18.49135         6.33906        -0.07870
C         18.43834         7.78454        -0.18624
C         19.65672         5.66563        -0.41551
C         19.62728         8.50964        -0.53549
C         18.43321        10.62395        -0.04366
C         18.45483        12.07339         0.09987
C         19.62736         9.93427        -0.45450
C         19.61877        12.79409        -0.10789
C         18.46251        14.90474         0.48708
C         18.48484        16.34191         0.95994
C         19.67490        14.21085         0.17213
C         19.78904        17.08011         0.64846
C         18.44696        19.23640         0.24434
C         19.74956        18.57661         0.34170
C         20.91136         2.07758        -0.57956
C         20.94410         3.48463        -0.64528
C         22.06442         4.23583        -1.12812
C         20.69155         6.33558        -1.29247
C         20.79258         7.82262        -0.99461
C         21.99667         5.58122        -1.33154
C         21.91785         8.56039        -1.33915
C         20.80758        10.65571        -0.78463
C         20.80994        12.16676        -0.79756
C         21.92885         9.96197        -1.22218
C         22.09976        12.78921        -0.32532
C         20.91485        14.88613         0.11285
C         20.97441        16.32781         0.18729
C         22.12906        14.10205        -0.00136
C         22.08917        17.03129        -0.24442
C         20.90971        19.16571        -0.33081
C         22.04898        18.43427        -0.50617
O         20.09336        18.04656         1.70516
O          4.83765        13.84943        -1.56887
O         12.83098         3.65675         2.06466
O         11.17297        15.54260        -1.30427
O          3.40241        11.28900         1.77392
O          5.73981         3.84281        -1.74792
O         19.54181         3.87207         1.29329
O          3.86689         7.36254        -1.86319
O         10.63429         4.05563        -0.96530
O          3.89522        15.94128         1.25075
O         14.72334        12.82524         2.51684
H         15.50956        13.31934         2.83268
O          7.07108         5.60766         1.91136
H          7.90839         5.28317         2.33629
O          7.20162        17.36471         1.67894
H          7.94835        17.93050         1.96993
O         10.20814        12.88451         2.25575
H          9.40632        13.15890         2.74727
O         20.67680        12.53799        -2.21794
H         20.68719        13.51789        -2.26238
O         12.13948        18.52987         2.13921
H         12.98781        18.18898         2.49665
O          8.75951         6.22150        -1.30310
H          9.69197         6.39819        -1.54737
O          4.86200        16.46699        -2.18963
H          4.87085        15.45840        -2.16930
O          4.92627        13.48894         2.05519
H          4.60004        12.79124         2.66678
O         18.39425        16.25228         2.42098
H         18.85248        17.05675         2.76516
O         12.32720         9.94764        -1.45093
H         13.18234         9.56292        -1.74216
O          2.03734        17.75006         1.11442
H          2.48358        17.14157         1.75218
O          9.63815         5.52086         2.23756
H          9.91221         6.37599         2.63295
O         10.75009        12.16138        -1.27681
H         11.32039        11.49663        -1.73560
O          7.14848         8.29465         2.27754
H          6.96884         7.32362         2.40854
O         20.16550         6.25258        -2.66990
H         19.35122         6.79878        -2.70465
O         15.89870         2.77693        -1.59960
H         15.77299         2.03968        -2.23311
O         16.27787        10.38304         2.34929
H         17.10182        10.84866         2.60487
O          9.94039         9.84372         2.50282
H          9.07386         9.49310         2.81198
O         16.24572         2.84060         2.03360
H         16.27310         3.57593         2.68082
H          0.25549         1.58612        -0.31580
H          0.23327         4.04255        -0.52991
H          2.40347         0.33266        -0.20442
H          0.28184         5.95745        -0.89881
H          0.25584         8.35803        -0.68457
H          0.19651        10.23931        -0.18314
H          0.17472        12.64408         0.01527
H          0.28677        14.49858        -0.64411
H          0.33278        16.88833        -0.98761
H          1.62831        19.01647        -1.37514
H          4.81248         0.28437        -0.12419
H          3.79562        20.06458        -1.80424
H          7.35317         0.21579         0.05950
H          6.17583        20.23829        -0.97558
H          9.80243         0.21703         0.15214
H          8.63285        20.25242        -0.74175
H         12.32590         0.19820         0.22505
H         11.03936        20.32261         0.08144
H         14.73962         0.34473        -0.35499
H         13.55322        20.33439         0.29387
H         17.25777         0.35090        -0.53377
H         16.01315        20.30758         0.11814
H         19.75661         0.27255        -0.36826
H         18.41791        20.30934         0.00406
H         21.81190         1.51826        -0.87480
H         23.00818         3.70108        -1.31736
H         22.89220         6.10517        -1.69429
H         22.81537         8.06154        -1.72870
H         22.83340        10.50843        -1.52241
H         23.03358        12.21022        -0.36092
H         23.08690        14.58153         0.24792
H         22.99428        16.48383        -0.54269
H         20.84282        20.20182        -0.69269
H         22.93214        18.90020        -0.96608
