         576
 CSIRO Nanostructure Databank - Neutral Graphene Oxide Data Set
C          6.18596        19.15905         2.03387
C          6.23931        20.55599         2.15734
C          4.97211        21.28111         2.17060
C          5.79341        23.61257         2.02657
C          4.74204        22.61558         1.95883
C          6.04288        24.74037         1.29783
C          8.50126        14.84975         1.25786
C          8.46640        16.23251         1.16993
C          7.33007        16.99772         1.62881
C          8.38863        19.14849         0.86563
C          7.29132        18.37588         1.56801
C          8.74651        20.37291         1.73600
C          7.51709        21.21369         1.99976
C          8.73968        23.33321         1.55241
C          7.69632        22.57271         2.17930
C          8.63030        24.71482         1.28756
C          7.34283        25.42769         1.27651
C          8.44813        27.58806         0.65577
C          7.30204        26.77867         0.96497
C          8.33324        28.92316         0.39898
C         10.99179        10.47627         1.12914
C         10.93450        11.90205         0.92069
C          9.77387        12.66086         1.19477
C         10.83903        14.75157         0.53970
C          9.69925        14.07842         0.97276
C         10.76138        16.17411         0.05244
C          9.61987        16.97084         0.64553
C         10.78415        19.10793        -0.01465
C          9.61306        18.32887         0.54704
C         11.14777        20.35318         0.86539
C          9.91438        21.17586         1.19475
C         11.10760        23.31593         0.80210
C          9.89869        22.54414         1.14916
C         10.93476        24.72442         0.39334
C          9.78277        25.41075         0.70274
C         10.64782        27.52964        -0.50200
C          9.80615        26.93892         0.62662
C         10.57085        28.99787        -0.81341
C          9.38964        29.82844        -0.20682
C         10.45008        32.02097         0.20278
C          9.78830        30.95879         0.73256
C         10.96664        33.24249         0.78345
C         13.50649         6.24801         1.49431
C         13.42968         7.66720         1.23984
C         12.23763         8.34215         1.22233
C         13.36439        10.41525         0.43869
C         12.16649         9.76705         0.95965
C         13.31647        11.84048         0.16212
C         12.12172        12.55293         0.47679
C         13.38266        14.75257         0.28025
C         12.10665        14.02217         0.49451
C         13.36913        16.23157         0.01771
C         12.06673        16.94793         0.05683
C         13.20065        19.03985        -0.68162
C         12.04077        18.28933        -0.12785
C         13.31206        20.49774        -0.43545
C         12.29519        21.13586         0.23365
C         13.42392        23.32511        -0.29065
C         12.36380        22.59702         0.45047
C         13.25782        24.58463        -0.73999
C         11.96314        25.29248        -0.52142
C         13.06367        27.40160        -1.44325
C         11.84721        26.72920        -0.92294
C         13.09878        28.89201        -1.62298
C         11.83628        29.68191        -1.37042
C         13.13559        31.80013        -0.80742
C         11.98146        31.14970        -1.11351
C         13.17006        33.24637        -0.48285
C         12.09633        33.88836         0.30665
C         13.36829        36.01856         0.33366
C         12.34514        35.23564         0.79657
C         13.56609        37.39887         0.70731
C         15.92984         6.23568         1.05560
C         14.69150         5.58109         1.44371
C         15.92154         7.62160         0.72096
C         14.72832         8.43972         1.14248
C         15.68936        10.22734        -0.40902
C         14.55969         9.71065         0.35626
C         15.60970        11.75591        -0.81633
C         14.50614        12.50430        -0.23635
C         15.78285        14.67343        -0.67670
C         14.61736        13.97021        -0.07860
C         15.65578        16.06367        -1.27146
C         14.53420        16.88256        -0.65320
C         15.66978        19.02973        -1.42817
C         14.39096        18.29084        -1.15810
C         15.70123        20.48569        -1.16141
C         14.56403        21.16228        -0.77498
C         15.81495        23.34525        -1.15175
C         14.73404        22.61324        -0.38394
C         15.70979        24.67171        -1.51881
C         14.23742        25.13569        -1.76679
C         15.94717        27.76720        -2.20246
C         14.02791        26.60558        -1.96809
C         15.77687        29.03777        -1.72396
C         14.42588        29.59660        -1.35678
C         15.63275        31.81482        -1.20491
C         14.40671        31.02337        -0.88951
C         15.55408        33.29707        -1.20370
C         14.30776        33.97301        -0.76275
C         15.59352        36.18225        -0.87034
C         14.24882        35.48862        -0.76361
C         15.79509        37.51543        -0.39680
C         14.66282        38.10867         0.30961
C         18.36317         6.16672         0.69118
C         17.12398         5.52519         1.01678
C         18.33948         7.53133         0.13904
C         17.07758         8.24895         0.18987
C         18.21739        10.26779        -0.68184
C         17.00457         9.56400        -0.34967
C         18.16831        11.64705        -0.94537
C         16.90707        12.40594        -1.34067
C         18.14379        14.61299        -1.10607
C         16.98547        13.89939        -1.08054
C         18.12946        16.08227        -1.07246
C         16.97275        16.79679        -1.17381
C         18.19536        19.04394        -1.13875
C         16.97055        18.26636        -1.41457
C         18.21326        20.41515        -1.15576
C         16.97806        21.18849        -1.25772
C         18.33161        23.27221        -1.58876
C         17.02686        22.57598        -1.29541
C         18.26945        24.75932        -1.27288
C         16.99875        25.42336        -1.75500
C         18.20549        27.63805        -1.17872
C         17.13247        26.91973        -1.99243
C         18.31770        29.09745        -1.64973
C         16.98737        29.79012        -1.40471
C         18.15166        31.91083        -0.81050
C         16.94360        31.12827        -1.15312
C         18.11421        33.45489        -0.89929
C         16.81485        34.07181        -1.27817
C         18.55541        36.51439        -1.08586
C         16.63617        35.43938        -1.47184
C         18.35540        37.83664        -0.51710
C         17.00870        38.26928        -0.32629
C         20.83322         6.28165         0.78129
C         19.55117         5.53385         0.99835
C         20.67599         7.08749        -0.52020
C         19.50909         8.12366        -0.36412
C         20.68290        10.31541        -0.91438
C         19.50703         9.53824        -0.68573
C         20.68043        11.74614        -0.77017
C         19.37312        12.47461        -0.59806
C         20.63217        14.67324        -0.60442
C         19.45459        13.87855        -1.23457
C         20.69332        16.11529        -1.06995
C         19.40664        16.84136        -1.13656
C         20.65207        19.00053        -0.56821
C         19.34710        18.25453        -0.58637
C         20.65898        20.38627        -0.49264
C         19.44936        21.14384        -0.83409
C         20.64463        23.29240        -0.52949
C         19.47237        22.51132        -0.95400
C         20.76236        24.70751        -1.06365
C         19.44475        25.46565        -1.07109
C         20.66969        27.64150        -0.80565
C         19.50948        26.90692        -1.07280
C         20.69239        29.07510        -0.77631
C         19.50216        29.83005        -1.04494
C         20.62227        31.89519        -0.22428
C         19.44389        31.19289        -0.79137
C         20.58314        33.40690        -0.12418
C         19.50972        34.15102        -0.99639
C         20.79033        36.36405        -0.40072
C         19.51440        35.64803        -0.65148
C         20.77622        37.81040        -0.06903
C         19.50921        38.48167        -0.03682
C         23.29496         5.98585         0.38325
C         22.09942         5.45090         0.83242
C         23.22295         7.23728        -0.38159
C         22.02552         7.60557        -0.90231
C         23.17173        10.31269        -0.77842
C         21.98493         9.77184        -1.22344
C         23.13498        11.73595        -0.40479
C         21.86807        12.44138        -0.67800
C         23.20856        14.65100        -0.88723
C         21.91125        13.90643        -0.88254
C         23.19425        16.15028        -0.83297
C         21.90873        16.87476        -0.69204
C         23.09716        18.94793        -0.03335
C         21.87165        18.23139        -0.46676
C         23.09830        20.42196        -0.07526
C         21.92141        21.09259        -0.27318
C         23.19935        23.32067        -0.14307
C         21.91328        22.56947        -0.19155
C         23.17546        24.68477        -0.18452
C         21.89043        25.42681        -0.34348
C         23.15332        27.66393        -0.24414
C         21.87726        26.92315        -0.32282
C         23.16449        29.02756        -0.32379
C         21.90877        29.77988        -0.41979
C         23.16152        31.87626         0.09396
C         21.90107        31.14774        -0.18643
C         23.14393        33.36504         0.28959
C         21.84942        34.18382         0.32919
C         23.25663        36.29638         0.18751
C         22.03222        35.58045        -0.22973
C         23.23395        37.70741         0.37739
C         21.97691        38.41662         0.29811
C         25.77677         5.93469         0.06876
C         24.56930         5.33534         0.48161
C         25.77636         7.34095        -0.43576
C         24.46779         8.01812        -0.68291
C         25.67998        10.26434        -0.13847
C         24.39632         9.51840        -0.45545
C         25.73034        11.74256        -0.36654
C         24.45065        12.50099        -0.33047
C         25.66513        14.65687        -0.43197
C         24.47459        13.95827        -0.57621
C         25.71446        16.08330        -0.31344
C         24.47477        16.85087        -0.54147
C         25.68303        18.97874         0.11930
C         24.40519        18.23045         0.01345
C         25.63479        20.35011         0.27511
C         24.43246        21.12641        -0.19738
C         25.56626        23.24862         0.54399
C         24.42474        22.58703         0.18575
C         25.68699        24.71506         0.22899
C         24.34505        25.47175         0.36579
C         25.54592        27.68637         0.44297
C         24.45000        26.86524        -0.28499
C         25.75047        29.01486        -0.27110
C         24.46015        29.77072        -0.43183
C         25.66191        31.88645         0.06549
C         24.47096        31.22740        -0.19971
C         25.64912        33.35933         0.45017
C         24.42371        34.08961        -0.13508
C         25.67064        36.26222         0.37237
C         24.45413        35.57244         0.21365
C         25.68640        37.66179         0.62862
C         24.46034        38.36248         0.64881
C         28.27055         5.95629        -0.04253
C         27.01633         5.28527         0.17805
C         28.27573         7.41831        -0.10227
C         27.01502         8.13315        -0.17641
C         28.17719        10.27378         0.25663
C         26.96218         9.50453        -0.09231
C         28.17800        11.74061        -0.05412
C         26.91447        12.41944        -0.46350
C         28.21545        14.65836        -0.29425
C         26.93956        13.90570        -0.54284
C         28.13474        16.04812         0.25385
C         26.88120        16.80488         0.01540
C         28.16733        18.94224         0.28809
C         26.88701        18.20590         0.21299
C         28.15610        20.42909         0.47172
C         26.84201        21.07463         0.72466
C         28.13814        23.29483         1.00987
C         26.83048        22.56079         0.90086
C         28.12642        24.66560         1.11639
C         26.83449        25.40638         0.94709
C         28.10488        27.63493         0.86944
C         26.82060        26.90160         0.81842
C         28.09953        29.00399         0.72939
C         27.08102        29.73743        -0.12219
C         28.09899        31.93791         0.44159
C         26.92860        31.21700         0.18384
C         28.17283        33.34761         0.33496
C         26.93049        34.06347         0.05125
C         28.21383        36.21503         0.50519
C         26.94678        35.56358         0.13931
C         28.17902        37.64444         0.77290
C         26.96725        38.31983         0.80306
C         30.77445         5.97600        -0.35807
C         29.47846         5.27796        -0.02691
C         30.74690         7.44074         0.01217
C         29.48971         8.10302         0.02902
C         30.72634        10.30562         0.17272
C         29.48017         9.52396         0.52822
C         30.71615        11.66752         0.16462
C         29.49554        12.43465        -0.16743
C         30.67574        14.59980         0.60407
C         29.52463        13.92345        -0.14988
C         30.72102        16.08257         0.30865
C         29.43813        16.77542         0.48879
C         30.63107        18.92967         0.46975
C         29.44981        18.23877         0.44801
C         30.65413        20.32380         1.06683
C         29.37953        21.14289         0.90888
C         30.69194        23.12439         1.59751
C         29.36576        22.49325         1.14658
C         30.66839        24.67101         1.69093
C         29.31007        25.45636         1.58227
C         30.34736        27.74230         1.76828
C         29.26306        26.93852         1.40826
C         30.56104        29.07483         1.31377
C         29.28922        29.78075         1.11878
C         30.62573        31.88737         0.76566
C         29.31003        31.25605         0.94068
C         30.63211        33.30613         0.55467
C         29.39569        34.03804         0.46829
C         30.65555        36.12415         1.08101
C         29.38084        35.47832         0.59266
C         30.64251        37.63271         0.97522
C         29.45493        38.32045         0.92788
C         33.15916         5.98769         0.37721
C         32.02083         5.29820         0.15500
C         33.21894         7.44232         0.25255
C         31.95834         8.14381         0.17299
C         33.19425        10.26648        -0.02860
C         31.99278         9.58396         0.14926
C         33.14397        11.70011        -0.54795
C         32.00904        12.40987         0.15977
C         33.17631        14.67231        -0.05547
C         31.99177        13.89102         0.33938
C         33.13648        16.09000        -0.14118
C         31.86520        16.79268         0.04219
C         32.99739        19.00329        -0.23187
C         31.87531        18.25721         0.11184
C         32.89316        20.46621        -0.09749
C         31.83635        21.11684         0.59182
C         33.05360        23.21952         0.56858
C         31.85953        22.50683         0.81461
C         33.16472        24.59735         1.05118
C         31.96598        25.35178         1.45539
C         33.21928        27.52905         1.18424
C         32.19442        26.67952         1.76248
C         33.08623        28.95502         1.04308
C         31.82067        29.70390         1.13678
C         33.03555        31.81045         0.31336
C         31.79811        31.11890         0.81639
C         33.06872        33.29820         0.56772
C         31.87858        34.00440         0.54117
C         33.16189        36.15978         0.79221
C         31.86482        35.50545         0.37468
C         33.11037        37.58583         1.01812
C         31.93052        38.28153         1.06344
C         34.41052         8.14850         0.28319
C         35.63054        10.32963         0.22160
C         34.44937         9.58194         0.11975
C         35.65645        11.76868         0.15663
C         34.50204        12.49271        -0.52234
C         35.56445        14.69878         0.05768
C         34.39089        13.95791        -0.09867
C         35.56028        16.11914        -0.15294
C         34.31688        16.81139        -0.36927
C         35.57980        18.95327        -0.74798
C         34.21598        18.25230        -0.86554
C         35.69080        20.24814        -1.12957
C         33.86296        21.33860        -0.62855
C         35.45646        23.28973        -0.28766
C         34.14386        22.62622        -0.12734
C         35.51313        24.66039         0.01333
C         34.40601        25.37289         0.69205
C         35.49878        27.55940         0.22830
C         34.35914        26.84969         0.67044
C         35.50251        28.97199         0.37026
C         34.29043        29.66858         0.67209
C         35.53326        31.81770         0.51607
C         34.31079        31.08990         0.60020
C         35.51620        33.26267         0.58782
C         34.33536        33.98882         0.63985
C         34.32311        35.43020         0.82356
C         36.76965        12.50034         0.49407
C         38.04163        14.74198         0.43289
C         36.75782        14.00370         0.65307
C         38.03386        16.12150         0.18834
C         36.80596        16.78864        -0.17446
C         38.07166        18.96752        -0.31152
C         36.88431        18.16191        -0.77078
C         38.13944        20.39372        -0.62585
C         36.85516        21.14919        -0.99341
C         37.94178        23.24093        -0.38298
C         36.72346        22.58427        -0.61544
C         37.99550        24.69147         0.02078
C         36.71057        25.44247        -0.15267
C         37.92488        27.61333        -0.62667
C         36.69051        26.82862        -0.14376
C         37.90946        29.04132        -0.17054
C         36.74321        29.70535         0.19164
C         36.74097        31.11918         0.38372
C         39.22108        16.90629         0.33713
C         40.40488        19.09111         0.47032
C         39.22114        18.31599         0.17554
C         40.43425        20.47061         0.33989
C         39.26945        21.17331        -0.13368
C         40.42320        23.33565         0.04657
C         39.20439        22.56202        -0.21162
C         40.45842        24.68743        -0.16217
C         39.21872        25.41720        -0.61322
C         39.15547        26.85076        -0.19072
C         41.60845        21.26214         0.64701
C         41.60511        22.61118         0.48296
O         22.57562        14.19271        -2.15626
O         27.97117        11.25881         1.33719
O         17.66133        36.14601        -2.07531
O         15.71087        14.50500         0.77806
O         14.52668        29.95983         0.09526
O         22.00946         8.56127        -1.92366
O          9.95538        28.00962        -1.69287
O         17.89262        32.76354         0.36287
O         31.30879        27.27030         2.65968
O         29.03844        30.70264         2.28436
O         10.41255        19.57794        -1.34114
O         23.61759        18.36837         1.24405
O         29.81018        13.21286        -1.38266
O         32.35665        12.97291         1.46452
O         20.99786        23.07736         0.86827
O         23.99932        16.75329        -1.93041
O         26.68672        21.65125         2.06356
O         20.19372        32.61003         1.02315
O         12.26817        29.34944        -2.73400
O         14.44112        16.88834         0.79527
O         23.68432        12.16093         0.89463
O         24.77600         9.82596         0.93666
O         25.25278         7.53733        -1.81514
O         17.36784        25.99596        -3.09179
O         14.91300        27.14963        -2.90224
O         27.70874        14.52249        -1.64964
O         34.24274        24.78615         2.05293
O         21.52327        26.11772         0.89769
O         28.61960        16.22859         1.60692
O         29.89008        25.04406         2.86512
O         12.18233        23.07763         1.83736
O         28.26246        19.89885        -0.88634
O         34.95552        12.62668        -1.85635
O         12.99891        14.49677         1.66677
O         11.38522        25.66215        -1.83337
O         15.42030        32.52119        -2.48955
O         20.14619        16.52954        -2.36917
O         25.21971        29.22952        -1.61610
O         34.58738        20.87316        -1.72217
O          6.78576        23.27674         2.97243
O         15.22323        10.68762        -1.72838
O         26.56091        26.21715         2.11113
O         10.79951        31.88779        -1.16841
O         26.94692        34.84877        -1.17889
O         16.30188        18.62304        -2.69057
O         21.66741        35.93491        -1.59961
O         37.82441        20.80059        -2.04168
O         23.22745        32.51127         1.46291
O         32.92203        31.70954        -1.17929
H         33.76707        32.04121        -1.55334
O          7.82356        19.62319        -0.38102
H          8.56308        19.78495        -1.01223
O         30.79864        35.79663         2.49109
H         30.02235        36.15487         2.96979
O         18.52767        29.04977        -3.08296
H         18.55727        29.96623        -3.42852
O         15.04475         8.86406         2.52435
H         14.27795         9.38111         2.85313
O         19.19445        12.63718         0.86017
H         19.27514        11.75187         1.27576
O         20.25557         6.18254        -1.56921
H         20.36207         6.64820        -2.42555
O         39.08153        25.27404        -2.05632
H         39.97210        25.35443        -2.45677
O         19.93434        33.98086        -2.36393
H         20.64593        34.65081        -2.52953
O         13.88548        24.49464        -3.02703
H         14.15919        25.09684        -3.75241
O          8.72684        30.42556        -1.34494
H          8.67811        29.73562        -2.04213
O         10.44730        16.03418        -1.38438
H         10.19381        16.92130        -1.72186
O         13.56544        35.83631        -2.02267
H         13.43557        36.80848        -2.02538
O         18.60017        23.22423        -3.03842
H         17.98805        23.85798        -3.47622
O         19.00084        18.03149         0.82535
H         19.11502        18.87625         1.31062
O         10.51471        27.34640         1.84142
H         10.00852        27.01569         2.61351
O         30.36037        14.45560         2.00569
H         31.02523        13.83551         2.39136
O         24.74043        26.65204        -1.67571
H         24.83427        27.54018        -2.10073
O         30.90781        22.69575         2.97543
H         30.35742        23.28652         3.54279
O         15.26074        22.59267         0.99135
H         14.50030        22.52304         1.60885
O         21.63549        34.50843         1.72704
H         21.40941        33.66071         2.17782
O         20.52859        14.84795         0.82232
H         20.12158        14.04340         1.22797
O         25.63950        33.46932         1.88972
H         24.83353        32.99879         2.21617
O         26.14846        24.69136        -1.14778
H         25.41543        24.37933        -1.72117
O         31.68708        35.77500        -1.04355
H         32.40744        35.32592        -1.53264
O         21.16576        24.58725        -2.45377
H         20.42424        24.14850        -2.93929
O          9.14170        19.82199         3.02332
H          9.33018        20.56524         3.63304
O         24.63711        21.20996        -1.67030
H         24.78659        20.30241        -2.01475
O         15.33081        15.89779        -2.67162
H         15.52315        16.75297        -3.12559
O         33.89830        18.14460        -2.27850
H         33.94517        19.05127        -2.65491
O         19.76692        13.67982        -2.62043
H         19.88795        14.56520        -3.03459
O         24.06573        25.60453         1.77422
H         23.09923        25.80378         1.86449
O         29.57123         9.36144         1.97930
H         29.15937        10.16417         2.37724
O         17.63160        27.64804         0.16181
H         18.31627        27.95609         0.79303
O         37.13530        17.91248        -2.20417
H         37.39495        18.77854        -2.59887
O         24.97367        28.12446         1.69950
H         24.98310        27.33942         2.30333
O         16.85882        12.31106        -2.79410
H         16.40358        11.46346        -3.01034
O         37.83264        27.66371        -2.07565
H         38.16852        26.79393        -2.41173
O         20.95273         7.28728         1.84208
H         21.09116         6.81743         2.69101
O         36.54528        14.19315         2.12764
H         37.28175        13.73452         2.58694
O         24.44194        33.96655        -1.57500
H         25.27136        34.40493        -1.89114
O         30.86976         5.91110        -1.83335
H         30.10276         6.40266        -2.19760
O         38.25125        24.72271         1.45627
H         37.45701        24.37413         1.91468
O         11.67409        19.81117         2.10047
H         11.90411        20.56285         2.68649
O         30.81821        20.04950         2.48959
H         30.91076        20.92731         2.94573
O         32.74913        11.56889        -1.92631
H         33.54802        11.88375        -2.44359
O         13.34760        18.62091        -2.12250
H         11.21511        19.60384        -1.90785
O         27.72103        29.71138        -1.44486
H         26.99584        29.80115        -2.10749
H          5.23176        18.64635         2.23747
H          4.08488        20.62639         2.14323
H          3.71518        22.94072         1.72982
H          5.26055        25.14813         0.64014
H          7.61972        14.31499         1.64282
H          6.49697        16.45263         2.10046
H          6.31708        27.26553         0.89531
H          7.33378        29.38170         0.47259
H         10.08931         9.95509         1.48247
H          8.87819        12.13973         1.56541
H          9.48761        30.93096         1.78834
H         10.37848        33.73751         1.57303
H         12.57548         5.70871         1.72530
H         11.29812         7.79883         1.40894
H         11.63565        35.64814         1.53142
H         12.80680        37.88268         1.34029
H         14.72719         4.50218         1.65443
H         14.76365        39.15493         0.63597
H         17.14340         4.47302         1.33776
H         16.89867        39.26469         0.13683
H         19.54457         4.54513         1.48227
H         19.44407        39.48849         0.40211
H         22.08488         4.48435         1.35927
H         21.97774        39.49282         0.53004
H         24.60795         4.32854         0.92598
H         24.46428        39.44952         0.82013
H         27.03980         4.22452         0.47337
H         26.96742        39.40627         0.98048
H         29.48176         4.18015         0.06185
H         29.45942        39.42190         0.95036
H         34.07839         5.45786         0.67169
H         32.01105         4.20143         0.24828
H         34.06185        38.12560         1.14357
H         31.95270        39.37616         1.18088
H         35.36131         7.60564         0.39973
H         36.57381         9.80304         0.44230
H         36.48107        33.78984         0.62458
H         35.27984        35.93044         1.04243
H         37.65234        11.97870         0.90443
H         38.98359        14.26162         0.74294
H         38.80380        29.64360        -0.39541
H         37.68989        31.67137         0.31981
H         40.14530        16.40709         0.66186
H         41.30136        18.56085         0.82428
H         41.39297        25.24781        -0.00682
H         39.48111        27.03531         0.84889
H         42.51475        20.74452         0.99353
H         42.51280        23.19496         0.69654
