         265
 CSIRO Nanostructure Databank - Neutral Graphene Oxide Data Set
C        -11.15586         0.64416        -0.28615
C         -9.96514         1.47824        -0.66552
C         -8.81850         0.69906        -1.34866
C         -7.53182         1.47535        -1.56708
C         -6.20669         0.75377        -1.83677
C         -4.87092         1.54460        -1.97717
C         -3.67579         0.82218        -1.35558
C         -2.48519         1.51693        -1.35310
C         -1.17676         0.76173        -1.22149
C          0.05630         1.63251        -0.95912
C          1.34846         0.95903        -0.64865
C          2.62167         1.52205        -1.15824
C          3.76512         0.76253        -1.18514
C          5.08041         1.46590        -1.28447
C          6.35673         0.67965        -1.18044
C          7.44497         1.26489        -0.32503
C          8.69741         0.51598        -0.06990
C          9.66264         1.06383         0.72581
C         10.78516         0.23736         1.15386
C         -9.40219         2.17599         0.58013
C         -8.39821         3.20905         0.17641
C         -7.49671         2.93922        -1.02279
C         -6.09300         3.41399        -0.66907
C         -4.97460         3.07917        -1.64346
C         -3.64335         3.65357        -1.18892
C         -2.47441         2.97350        -1.35358
C         -1.17601         3.66143        -1.05575
C          0.04726         2.98841        -1.64314
C          1.36188         3.77588        -1.44729
C          2.65252         2.99233        -1.38557
C          3.94078         3.65777        -1.05375
C          5.07286         2.92008        -0.92896
C          6.39561         3.57332        -0.73049
C          7.42427         2.73538        -0.04298
C          8.61976         3.39093         0.54160
C          9.53481         2.45758         1.32464
C         -8.32357         4.43207         0.84184
C         -7.21115         5.27995         0.71904
C         -6.01432         4.70019         0.10093
C         -4.77274         5.52943         0.08189
C         -3.63765         5.08074        -0.77488
C         -2.37343         5.86417        -0.62886
C         -1.10835         5.07822        -0.62434
C          0.20213         5.75512        -0.39980
C          1.34660         5.11731        -0.77339
C          2.66050         5.69916        -0.39147
C          3.93123         5.14168        -0.98152
C          5.24010         5.86188        -0.70366
C          6.52172         5.06740        -0.67885
C          7.80972         5.71847        -0.14329
C          8.72193         4.73602         0.58829
C         -7.11441         6.59487         1.46711
C         -6.10402         7.58730         0.83293
C         -4.75695         6.92280         0.61219
C         -3.52806         7.76203         0.46310
C         -2.35656         7.17023         0.07054
C         -1.03175         7.90737         0.03374
C          0.11859         6.94092         0.56885
C          1.44916         7.71608         0.86851
C          2.68447         7.04119         0.26063
C          3.92060         7.86792         0.06150
C          5.19856         7.13076         0.03230
C          6.36513         7.70049         0.59576
C          7.56241         6.98696         0.63767
C         -5.94201         8.88130         1.59688
C         -4.77325         9.56331         1.64714
C         -3.51928         9.07217         1.08872
C         -2.32848         9.76652         1.21572
C         -1.06501         9.21963         0.79523
C          0.12930         9.87690         0.98230
C          1.40352         9.23580         0.71732
C          2.57895         9.93490         0.76265
C          3.89718         9.30888         0.46928
C          5.15682         9.82238         1.05324
C          6.26971         9.05670         1.14718
C        -11.20166        -0.68553        -0.33124
C        -10.10230        -1.59076        -0.82197
C         -8.82736        -0.82567        -1.33239
C         -7.46269        -1.51434        -1.42943
C         -6.16700        -0.74190        -1.55989
C         -4.93249        -1.37602        -1.01851
C         -3.71615        -0.60500        -0.99197
C         -2.55850        -1.18526        -0.46347
C         -1.33457        -0.33384        -0.15376
C         -0.01653        -1.13727        -0.02417
C          1.31105        -0.48243        -0.25804
C          2.56304        -1.25938        -0.40803
C          3.73175        -0.65858        -0.79688
C          5.04715        -1.29369        -0.41030
C          6.23142        -0.85626        -1.26681
C          7.60998        -1.56536        -1.13951
C          8.83920        -0.84713        -0.65527
C         10.11819        -1.65167        -0.36537
C         10.95013        -1.03265         0.73400
C         -9.81446        -2.62486         0.27267
C         -9.06967        -3.70847        -0.03900
C         -7.31251        -2.93944        -1.08004
C         -6.20242        -3.52163        -0.52070
C         -4.96545        -2.72093        -0.49383
C         -3.81569        -3.33775         0.00773
C         -2.59662        -2.53816         0.09376
C         -1.28984        -3.24847         0.33980
C         -0.10160        -2.61167        -0.36798
C          1.22881        -3.39128        -0.24531
C          2.50658        -2.65910         0.18274
C          3.78040        -3.44595        -0.14136
C          4.97941        -2.60632         0.29822
C          6.14912        -3.34927         0.77179
C          7.68613        -3.09755        -1.31371
C          8.80624        -3.83084        -0.59522
C          9.86449        -3.13356        -0.11998
C         -8.70068        -4.93040         0.64619
C         -7.48924        -5.54174         0.43546
C         -6.23367        -4.89040         0.03290
C         -5.03442        -5.53597         0.35546
C         -3.72012        -4.86097         0.01896
C         -2.51815        -5.46250         0.74146
C         -1.25428        -4.70261         0.71915
C          0.05027        -5.46553         0.69669
C          1.24684        -4.85710         0.04209
C          2.54266        -5.63731         0.09129
C          3.79905        -4.89485         0.32194
C          4.96929        -5.53374         0.67835
C          6.12553        -4.70218         0.96108
C          7.91214        -5.99649         0.40584
C          8.72455        -5.31826        -0.50996
C         -7.47971        -7.04235         0.60269
C         -6.24336        -7.62524         1.26238
C         -4.97295        -6.88115         0.88198
C         -3.76998        -7.52137         1.12964
C         -2.51530        -6.79767         1.08893
C         -1.26362        -7.55013         1.41304
C          0.07267        -6.92394         1.06029
C          1.25114        -7.75758         0.76298
C          2.49045        -7.13207         0.25201
C          3.81029        -7.84895         0.42186
C          5.05808        -7.03711         0.67794
C          6.30172        -7.71211         1.28633
C          7.50043        -7.33279         0.42593
C         -6.11558        -9.09796         0.93410
C         -4.94932        -9.72050         1.11750
C         -3.78221        -8.94369         1.67019
C         -2.47258        -9.67954         1.52543
C         -1.29202        -9.03466         1.46867
C          0.02106        -9.72772         1.81407
C          1.28162        -9.09574         1.23561
C          2.46048        -9.82110         1.27198
C          3.74092        -9.36244         0.61891
C          4.99868        -9.90458         1.26199
C          6.13594        -9.21514         1.41922
O          6.00478         1.29893        -2.43960
O         -0.92260         0.12339        -2.49212
H         -0.86608         0.83975        -3.16721
O          4.96435        -1.32833         1.04944
O         -0.37020        -4.73336         1.89266
O          2.92785         5.82889         1.05106
O         -3.43908        -5.19190        -1.39873
H         -4.26082        -5.02761        -1.91063
O         -4.42729         5.79682         1.49968
O         -5.72942         3.31831         0.71303
O         -8.49822         1.28569        -2.63947
O          2.16430         3.59203        -2.65913
O          3.92287         8.91917        -0.96809
O         -3.16987         5.94800        -1.86468
O          1.72240         7.61566         2.29468
O         -1.85964        -2.51024         1.43680
O         -8.35235        -1.35210        -2.58736
O        -10.66166        -2.27479        -1.95625
H         -9.90417        -2.57354        -2.51326
O         -0.39320        -7.06103         2.47895
O          6.83008         1.79624         0.92452
O          2.46494        -6.53516        -1.09178
O          7.35237        -5.21289         1.45558
O          1.21488        -4.34504        -1.34943
O         -6.41530        -7.47692         2.69184
H         -5.65405        -7.94091         3.12445
O         -6.18005        -0.20682        -2.93300
O          0.75255        -0.72263         1.12185
O         -0.23495         6.39878         1.89887
H          0.93630         7.93989         2.78321
O         -0.65436         8.11498        -1.29484
O         -0.45626        -2.57956        -1.77146
H         -0.09292        -3.39208        -2.19768
O          4.57664         5.89237        -2.02985
O          6.82827         4.33315        -1.90596
O          7.20251        -2.63085         1.27118
H          7.79091        -3.28972         1.71110
O        -10.41710         2.51997        -1.55481
H        -10.71109         2.09318        -2.38777
O         -8.72957         1.15804         1.35043
H         -8.26932         1.59246         2.09912
O         -1.13190         3.95403         0.38047
O          6.90229        -3.67731        -2.03475
O          3.70344        -9.95277        -0.71760
H          4.23626        -9.36055        -1.29684
O          2.47115        -2.61632         1.62181
H          1.83881        -1.90843         1.90023
O         -1.61438         0.30119         1.09940
H         -0.75018         0.48935         1.53713
O         -4.52236         1.53176        -3.38867
H         -4.88625         0.69290        -3.76497
O          0.62957         1.76659         0.36399
O          3.92334        -3.51220        -1.57925
H          3.31059        -4.20261        -1.92090
O          6.41891        -7.21506         2.63645
H          7.32468        -7.39925         2.95811
O         -8.39328         7.21658         1.54710
H         -8.56839         7.61447         0.66670
O          8.51769        -0.90274        -2.09423
O         -1.62718         6.07232         1.99926
H         -1.64756         5.08719         1.86903
O          4.74996        -7.54559        -0.65842
O         10.95198        -1.60109        -1.55353
H         10.34254        -1.50407        -2.32256
O         -5.31117         3.79162        -2.84170
H         -4.91715         3.29203        -3.59668
O          8.57996         6.15833        -1.30177
H          8.32716         5.56954        -2.05070
O         -4.00823        -8.83155         3.12268
H         -3.21257        -8.41101         3.51460
O         -0.20182         2.80195        -3.04873
H          0.63948         3.01946        -3.52171
O         -8.45750        -3.69282        -1.33424
O         -6.66655         7.90916        -0.46987
H         -6.09722         8.58525        -0.89480
O         -7.56036        -7.57700        -0.73056
H         -8.28968        -7.12424        -1.20230
O          5.77151        -1.18167        -2.58450
H          6.41912        -0.82411        -3.22896
O          8.99340         2.32472         2.65024
H          8.06956         1.99779         2.54639
O          0.12314        -9.69730         3.24968
H          0.11443        -8.74651         3.50875
O         -7.96552         3.80451        -2.07370
H         -8.86272         3.47565        -2.32341
H         11.80086        -1.62627         1.10070
H         11.47606         0.66660         1.89435
H         10.55238         2.91132         1.42720
H          9.59626         5.18532         1.08626
H          8.44837         7.46569         1.08222
H          7.17379         9.46805         1.62046
H          5.15073        10.83060         1.49476
H          2.55315        11.03257         0.85264
H          0.13919        10.90787         1.37218
H         -2.32854        10.74899         1.71467
H         -4.74178        10.52998         2.17437
H         -6.84687         9.31114         2.05304
H         -6.77908         6.36706         2.51595
H         -9.13406         4.71894         1.53167
H        -10.22477         2.63686         1.19269
H        -12.03376         1.21123         0.06083
H        -12.12764        -1.20410        -0.03950
H        -10.31958        -2.54535         1.24497
H         -9.49436        -5.50180         1.15648
H         -8.38914        -7.36114         1.18564
H         -6.99864        -9.63659         0.56114
H         -4.82626       -10.79481         0.91453
H         -2.49458       -10.77283         1.65883
H         -0.02883       -10.80340         1.51132
H          2.43444       -10.85300         1.65362
H          4.99937       -10.98696         1.46830
H          7.01898        -9.74268         1.81723
H          7.81073        -8.01617        -0.37749
H          9.19679        -5.88973        -1.32498
H         10.69271        -3.68265         0.35771
